$TITLE   = MSC.NASTRAN JOB CREATED ON 20-FEB-15 AT 15:37:03                    1
$SUBTITLE=DEFAULT                                                              2
$LABEL   =                                                                     3
$EIGENVECTOR                                                                   4
$REAL OUTPUT                                                                   5
$SUBCASE ID =           1                                                      6
$EIGENVALUE =  1.4629397E+01  MODE =     1                                     7
   7710001       G      1.905634E-01     -5.311438E-03      1.844744E+00       8
-CONT-                  1.796473E-04      2.797820E-01      9.474307E-04       9
   7710002       G      1.149393E-01      1.982826E-03     -2.881829E-01      10
-CONT-                  6.583110E-04      2.795768E-01      9.033375E-04      11
   7710003       G      2.283329E-01     -1.708510E-03      5.792945E-01      12
-CONT-                  1.457326E-03      2.802951E-01      9.119376E-04      13
   7710004       G      1.185672E-01      3.123590E-03     -7.169432E-01      14
-CONT-                  1.339095E-03      2.799703E-01      9.603455E-04      15
   7710005       G      2.412116E-01      2.374569E-03     -1.062907E+00      16
-CONT-                  4.018936E-03      2.806336E-01      8.814538E-04      17
   7710006       G      1.316191E-01      8.038663E-03     -2.356254E+00      18
-CONT-                  3.926020E-03      2.803010E-01      8.903435E-04      19
   7710007       G      2.531288E-01      6.819604E-03     -2.708150E+00      20
-CONT-                  5.590022E-03      2.808483E-01      8.571707E-04      21
   7710008       G      1.434962E-01      1.293126E-02     -3.999907E+00      22
-CONT-                  5.569701E-03      2.806900E-01      8.569949E-04      23
   7710009       G      2.648777E-01      1.144975E-02     -4.371529E+00      24
-CONT-                  6.360473E-03      2.810432E-01      8.436120E-04      25
   7710010       G      1.553847E-01      1.776822E-02     -5.661828E+00      26
-CONT-                  6.350679E-03      2.809823E-01      8.387870E-04      27
   7710011       G      2.739491E-01      1.511132E-02     -5.679163E+00      28
-CONT-                  6.512495E-03      2.811221E-01      8.358853E-04      29
   7710012       G      3.333684E-01      1.755392E-02     -6.969683E+00      30
-CONT-                  6.522565E-03      2.811224E-01      8.328625E-04      31
   7810001       G      1.560128E-01     -4.949177E-03      1.845181E+00      32
-CONT-                 -1.456313E-04      2.797979E-01      9.912962E-04      33
   7810002       G      8.218815E-02      2.559948E-03     -2.878214E-01      34
-CONT-                 -6.769054E-04      2.795634E-01      1.039757E-03      35
   7810003       G      1.722113E-01      1.748123E-04      5.798628E-01      36
-CONT-                 -1.432261E-03      2.803797E-01      1.033734E-03      37
   7810004       G      6.605957E-02      4.375306E-03     -7.167954E-01      38
-CONT-                 -1.356884E-03      2.800572E-01      9.800449E-04      39
   7810005       G      1.575589E-01      7.226308E-03     -1.062991E+00      40
-CONT-                 -4.004846E-03      2.808573E-01      1.070621E-03      41
   7810006       G      5.153901E-02      1.062423E-02     -2.357422E+00      42
-CONT-                 -3.939860E-03      2.805451E-01      1.063253E-03      43
   7810007       G      1.423456E-01      1.377387E-02     -2.709894E+00      44
-CONT-                 -5.605773E-03      2.811530E-01      1.095531E-03      45
   7810008       G      3.625057E-02      1.670371E-02     -4.003000E+00      46
-CONT-                 -5.583073E-03      2.809842E-01      1.094250E-03      47
   7810009       G      1.269505E-01      2.011253E-02     -4.375169E+00      48
-CONT-                 -6.377897E-03      2.813408E-01      1.107906E-03      49
   7810010       G      2.100029E-02      2.283040E-02     -5.666815E+00      50
-CONT-                 -6.367847E-03      2.812795E-01      1.112648E-03      51
   7810011       G      1.147613E-01      2.504154E-02     -5.684307E+00      52
-CONT-                 -6.530862E-03      2.814190E-01      1.115760E-03      53
   7810012       G      8.902381E-03      2.771900E-02     -6.976169E+00      54
-CONT-                 -6.540624E-03      2.814190E-01      1.118722E-03      55
   7910007       G      5.845843E-01     -1.484788E-02      4.650221E+00      56
-CONT-                  1.060657E-05      2.797045E-01      9.681194E-04      57
   7910008       G     -3.900833E-02      9.890380E-03     -2.488870E+00      58
-CONT-                  1.134380E-05      2.796698E-01      9.681427E-04      59
   7910009       G      2.573131E-01     -8.742233E-03      2.895018E+00      60
-CONT-                  1.160193E-05      2.796938E-01      9.581363E-04      61
   7910010       G     -2.247278E-01      9.920612E-03     -2.488692E+00      62
-CONT-                 -4.106779E-05      2.797209E-01      9.720644E-04      63
   7910011       G      2.757076E-01     -8.777324E-03      2.894795E+00      64
-CONT-                  9.828710E-06      2.796923E-01      9.772745E-04      65
   7910012       G     -2.063325E-01      9.878847E-03     -2.488910E+00      66
-CONT-                  5.460494E-05      2.797202E-01      9.661091E-04      67
$TITLE   = MSC.NASTRAN JOB CREATED ON 20-FEB-15 AT 15:37:03                   68
$SUBTITLE=DEFAULT                                                             69
$LABEL   =                                                                    70
$EIGENVECTOR                                                                  71
$REAL OUTPUT                                                                  72
$SUBCASE ID =           1                                                     73
$EIGENVALUE =  3.4339086E+01  MODE =     2                                    74
   7710001       G     -2.392483E-02      1.368650E-04     -3.375949E+00      75
-CONT-                  2.902043E-04     -3.631699E-02     -1.103273E-04      76
   7710002       G     -1.410358E-02     -6.145272E-04     -3.097991E+00      77
-CONT-                  9.784671E-04     -3.660366E-02     -1.759984E-04      78
   7710003       G     -2.845063E-02     -1.203198E-03     -3.223122E+00      79
-CONT-                  1.901227E-03     -3.561478E-02     -1.686251E-04      80
   7710004       G     -1.448443E-02     -1.201015E-03     -3.053497E+00      81
-CONT-                  1.794631E-03     -3.599947E-02     -1.005748E-04      82
   7710005       G     -3.093281E-02     -3.483306E-03     -3.070880E+00      83
-CONT-                  4.828638E-03     -3.511356E-02     -2.150625E-04      84
   7710006       G     -1.700077E-02     -2.594498E-03     -2.898236E+00      85
-CONT-                  4.751885E-03     -3.545298E-02     -2.072955E-04      86
   7710007       G     -3.406853E-02     -5.239943E-03     -2.954414E+00      87
-CONT-                  6.451650E-03     -3.485661E-02     -2.436052E-04      88
   7710008       G     -2.016117E-02     -3.892822E-03     -2.780284E+00      89
-CONT-                  6.420999E-03     -3.502560E-02     -2.420284E-04      90
   7710009       G     -3.758999E-02     -6.774476E-03     -2.854197E+00      91
-CONT-                  7.150121E-03     -3.473439E-02     -2.583531E-04      92
   7710010       G     -2.373461E-02     -5.247622E-03     -2.679714E+00      93
-CONT-                  7.134422E-03     -3.479382E-02     -2.606000E-04      94
   7710011       G     -4.046172E-02     -7.947651E-03     -2.780107E+00      95
-CONT-                  7.273769E-03     -3.470608E-02     -2.641700E-04      96
   7710012       G     -4.749197E-02     -1.075885E-02     -2.605663E+00      97
-CONT-                  7.274402E-03     -3.470875E-02     -2.656101E-04      98
   7810001       G     -2.106391E-02      6.381818E-04     -3.373932E+00      99
-CONT-                 -1.755289E-04     -3.632068E-02     -5.072661E-05     100
   7810002       G     -1.139200E-02      1.906069E-04     -3.096074E+00     101
-CONT-                 -8.478953E-04     -3.659950E-02      1.346034E-05     102
   7810003       G     -2.379912E-02      1.229242E-03     -3.219667E+00     103
-CONT-                 -1.751504E-03     -3.563550E-02      4.659327E-06     104
   7810004       G     -1.012982E-02      5.266527E-04     -3.050235E+00     105
-CONT-                 -1.648321E-03     -3.601487E-02     -6.077398E-05     106
   7810005       G     -2.396526E-02      2.558110E-03     -3.064896E+00     107
-CONT-                 -4.648169E-03     -3.515354E-02      5.040778E-05     108
   7810006       G     -1.032677E-02      9.747511E-04     -2.892407E+00     109
-CONT-                 -4.568862E-03     -3.549263E-02      4.250905E-05     110
   7810007       G     -2.481083E-02      3.383520E-03     -2.945556E+00     111
-CONT-                 -6.259898E-03     -3.490890E-02      7.869638E-05     112
   7810008       G     -1.119234E-02      1.345769E-03     -2.771551E+00     113
-CONT-                 -6.229605E-03     -3.507536E-02      7.716830E-05     114
   7810009       G     -2.603758E-02      3.990324E-03     -2.842350E+00     115
-CONT-                 -6.954210E-03     -3.478630E-02      9.333518E-05     116
   7810010       G     -1.247165E-02      1.773955E-03     -2.667995E+00     117
-CONT-                 -6.938638E-03     -3.484534E-02      9.558444E-05     118
   7810011       G     -2.711107E-02      4.436900E-03     -2.765892E+00     119
-CONT-                 -7.076959E-03     -3.475806E-02      9.909260E-05     120
   7810012       G     -1.358752E-02      2.190291E-03     -2.591574E+00     121
-CONT-                 -7.077641E-03     -3.476067E-02      1.005359E-04     122
   7910007       G     -7.616866E-02      1.109986E-03     -3.739632E+00     123
-CONT-                  5.637708E-05     -3.644589E-02     -8.021698E-05     124
   7910008       G      5.044225E-03     -8.119613E-04     -2.809521E+00     125
-CONT-                  5.615641E-05     -3.649086E-02     -8.015069E-05     126
   7910009       G     -3.395366E-02      6.914527E-04     -3.510345E+00     127
-CONT-                  5.798097E-05     -3.645639E-02     -9.223569E-05     128
   7910010       G      2.884786E-02     -7.426537E-04     -2.808884E+00     129
-CONT-                 -1.954582E-05     -3.640549E-02     -7.545544E-05     130
   7910011       G     -3.547745E-02      6.497001E-04     -3.511413E+00     131
-CONT-                  5.478009E-05     -3.645633E-02     -6.787405E-05     132
   7910012       G      2.732337E-02     -8.106296E-04     -2.809957E+00     133
-CONT-                  1.335198E-04     -3.640576E-02     -8.512808E-05     134
$TITLE   = MSC.NASTRAN JOB CREATED ON 20-FEB-15 AT 15:37:03                  135
$SUBTITLE=DEFAULT                                                            136
$LABEL   =                                                                   137
$EIGENVECTOR                                                                 138
$REAL OUTPUT                                                                 139
$SUBCASE ID =           1                                                    140
$EIGENVALUE =  1.8928966E+02  MODE =     3                                   141
   7710001       G      3.950315E-02      2.068664E-02      8.393860E-01     142
-CONT-                 -5.010619E-02     -1.772912E-03      2.687509E-03     143
   7710002       G      3.718459E-02      2.758140E-02      7.963238E-01     144
-CONT-                 -5.917135E-02      2.349435E-03      3.524087E-03     145
   7710003       G      6.601700E-02      4.885194E-02      1.503658E+00     146
-CONT-                 -7.246051E-02     -1.146933E-02      3.455610E-03     147
   7710004       G      6.498959E-02      3.617606E-02      1.407795E+00     148
-CONT-                 -7.085684E-02     -5.902388E-03      2.515113E-03     149
   7710005       G      1.161435E-01      8.822244E-02      2.952052E+00     150
-CONT-                 -1.164384E-01     -1.888181E-02      4.148190E-03     151
   7710006       G      1.153154E-01      6.216857E-02      2.809697E+00     152
-CONT-                 -1.151867E-01     -1.346095E-02      4.008608E-03     153
   7710007       G      1.766136E-01      1.205278E-01      4.901235E+00     154
-CONT-                 -1.435112E-01     -2.325908E-02      4.637302E-03     155
   7710008       G      1.762105E-01      8.689189E-02      4.733687E+00     156
-CONT-                 -1.430071E-01     -2.031391E-02      4.604272E-03     157
   7710009       G      2.436676E-01      1.496215E-01      7.138830E+00     158
-CONT-                 -1.565323E-01     -2.580792E-02      4.909610E-03     159
   7710010       G      2.437879E-01      1.127216E-01      6.962681E+00     160
-CONT-                 -1.562457E-01     -2.466819E-02      4.960303E-03     161
   7710011       G      2.985316E-01      1.719882E-01      8.977098E+00     162
-CONT-                 -1.591700E-01     -2.659092E-02      5.040679E-03     163
   7710012       G      2.832581E-01      2.300918E-01      8.802293E+00     164
-CONT-                 -1.591999E-01     -2.651179E-02      5.070285E-03     165
   7810001       G     -3.972908E-02      2.063393E-02     -8.598207E-01     166
-CONT-                 -5.009763E-02      1.518820E-03      2.696572E-03     167
   7810002       G     -3.732318E-02      2.762121E-02     -8.147605E-01     168
-CONT-                 -5.925073E-02     -2.673489E-03      3.543977E-03     169
   7810003       G     -6.648860E-02      4.882614E-02     -1.522720E+00     170
-CONT-                 -7.232253E-02      1.126153E-02      3.485665E-03     171
   7810004       G     -6.530816E-02      3.633056E-02     -1.426063E+00     172
-CONT-                 -7.081063E-02      5.698109E-03      2.540789E-03     173
   7810005       G     -1.175612E-01      8.853188E-02     -2.969550E+00     174
-CONT-                 -1.164612E-01      1.875477E-02      4.238850E-03     175
   7810006       G     -1.165286E-01      6.286308E-02     -2.826508E+00     176
-CONT-                 -1.152120E-01      1.331300E-02      4.096512E-03     177
   7810007       G     -1.793905E-01      1.214172E-01     -4.919839E+00     178
-CONT-                 -1.436844E-01      2.313529E-02      4.737552E-03     179
   7810008       G     -1.787571E-01      8.816343E-02     -4.751387E+00     180
-CONT-                 -1.431799E-01      2.018555E-02      4.701380E-03     181
   7810009       G     -2.478046E-01      1.510636E-01     -7.159426E+00     182
-CONT-                 -1.567368E-01      2.569184E-02      5.007715E-03     183
   7810010       G     -2.476951E-01      1.145407E-01     -6.982349E+00     184
-CONT-                 -1.564494E-01      2.454922E-02      5.058485E-03     185
   7810011       G     -3.037407E-01      1.738639E-01     -8.999456E+00     186
-CONT-                 -1.593809E-01      2.647610E-02      5.139130E-03     187
   7810012       G     -3.041591E-01      1.367437E-01     -8.823724E+00     188
-CONT-                 -1.594107E-01      2.639670E-02      5.168777E-03     189
   7910007       G     -2.923328E-04      6.406874E-02     -1.155934E-02     190
-CONT-                 -4.722255E-02     -1.331307E-04      2.277481E-03     191
   7910008       G     -1.686423E-06      1.712318E-02     -8.183803E-03     192
-CONT-                 -4.661434E-02     -1.372821E-04      2.129511E-03     193
   7910009       G     -2.163569E-02      2.498337E-02     -4.570191E-01     194
-CONT-                 -4.721690E-02     -2.673546E-04      2.109209E-03     195
   7910010       G     -2.153009E-02     -1.227938E-02     -4.561207E-01     196
-CONT-                 -4.791348E-02      1.787091E-05      2.341555E-03     197
   7910011       G      2.135233E-02      2.499378E-02      4.355703E-01     198
-CONT-                 -4.720845E-02      5.952507E-06      2.109653E-03     199
   7910012       G      2.170015E-02     -1.229547E-02      4.397901E-01     200
-CONT-                 -4.791502E-02     -2.822792E-04      2.342736E-03     201
$TITLE   = MSC.NASTRAN JOB CREATED ON 20-FEB-15 AT 15:37:03                  202
$SUBTITLE=DEFAULT                                                            203
$LABEL   =                                                                   204
$EIGENVECTOR                                                                 205
$REAL OUTPUT                                                                 206
$SUBCASE ID =           1                                                    207
$EIGENVALUE =  2.6830282E+02  MODE =     4                                   208
   7710001       G     -1.631212E+00      4.848251E-01      6.113954E-02     209
-CONT-                 -2.207516E-03      3.684384E-03     -9.147274E-02     210
   7710002       G     -1.547333E+00     -2.131922E-01      2.915938E-02     211
-CONT-                 -3.713488E-03      4.602539E-03     -9.133080E-02     212
   7710003       G     -2.647956E+00      7.436631E-02      7.623963E-02     213
-CONT-                 -3.333529E-03      2.319097E-03     -9.120331E-02     214
   7710004       G     -2.477863E+00     -3.500228E-01      5.864441E-02     215
-CONT-                 -3.784284E-03      2.448093E-03     -9.134417E-02     216
   7710005       G     -3.936544E+00     -4.454621E-01      1.265030E-01     217
-CONT-                 -4.462048E-03      2.452358E-04     -9.117832E-02     218
   7710006       G     -3.765702E+00     -8.701109E-01      1.172558E-01     219
-CONT-                 -4.861477E-03     -1.792287E-05     -9.110305E-02     220
   7710007       G     -5.208950E+00     -9.580413E-01      1.940402E-01     221
-CONT-                 -4.551672E-03     -1.192512E-03     -9.191636E-02     222
   7710008       G     -5.036503E+00     -1.385668E+00      1.911293E-01     223
-CONT-                 -4.716983E-03     -1.277981E-03     -9.180652E-02     224
   7710009       G     -6.491105E+00     -1.475257E+00      2.640193E-01     225
-CONT-                 -4.148405E-03     -1.854669E-03     -9.240443E-02     226
   7710010       G     -6.317341E+00     -1.904731E+00      2.652441E-01     227
-CONT-                 -4.350329E-03     -2.108330E-03     -9.232151E-02     228
   7710011       G     -7.498276E+00     -1.881924E+00      3.157787E-01     229
-CONT-                 -3.582259E-03     -2.597909E-03     -9.249931E-02     230
   7710012       G     -7.325963E+00     -2.309591E+00      3.213017E-01     231
-CONT-                 -3.860984E-03     -2.802465E-03     -9.244266E-02     232
   7810001       G      1.637806E+00      4.863247E-01     -1.878302E-02     233
-CONT-                 -2.357533E-03      3.928149E-03     -9.173207E-02     234
   7810002       G      1.551242E+00     -2.146490E-01     -4.831079E-02     235
-CONT-                 -6.786449E-04      5.408295E-03     -9.200602E-02     236
   7810003       G      2.662807E+00      7.466215E-02     -6.316384E-02     237
-CONT-                 -2.842827E-03      4.038988E-03     -9.271303E-02     238
   7810004       G      2.487555E+00     -3.554251E-01     -7.598995E-02     239
-CONT-                 -3.093037E-03      3.770638E-03     -9.224102E-02     240
   7810005       G      3.986715E+00     -4.562822E-01     -1.391423E-01     241
-CONT-                 -4.113161E-03      4.890089E-03     -9.433570E-02     242
   7810006       G      3.808444E+00     -8.947371E-01     -1.540874E-01     243
-CONT-                 -4.204024E-03      4.842215E-03     -9.419495E-02     244
   7810007       G      5.306549E+00     -9.873285E-01     -2.305046E-01     245
-CONT-                 -4.620743E-03      5.652023E-03     -9.530242E-02     246
   7810008       G      5.126028E+00     -1.430695E+00     -2.481944E-01     247
-CONT-                 -4.749365E-03      5.725082E-03     -9.519916E-02     248
   7810009       G      6.635944E+00     -1.523583E+00     -3.279228E-01     249
-CONT-                 -4.375394E-03      6.386728E-03     -9.580571E-02     250
   7810010       G      6.454076E+00     -1.968888E+00     -3.497006E-01     251
-CONT-                 -4.580565E-03      6.632107E-03     -9.571934E-02     252
   7810011       G      7.680159E+00     -1.945207E+00     -4.023588E-01     253
-CONT-                 -3.830598E-03      7.170194E-03     -9.590128E-02     254
   7810012       G      7.498048E+00     -2.391048E+00     -4.286064E-01     255
-CONT-                 -4.119996E-03      7.381188E-03     -9.584224E-02     256
   7910007       G      8.800925E-03      1.406692E+00      6.143855E-02     257
-CONT-                 -2.133515E-03      4.028870E-03     -9.157134E-02     258
   7910008       G      1.134267E-05     -9.357411E-01     -4.073027E-02     259
-CONT-                 -2.217476E-03      4.169466E-03     -9.158007E-02     260
   7910009       G      8.742083E-01      8.296315E-01      1.497046E-02     261
-CONT-                 -2.032141E-03      3.939389E-03     -9.157433E-02     262
   7910010       G      8.673586E-01     -9.374721E-01     -6.278342E-02     263
-CONT-                 -2.371324E-03      4.009717E-03     -9.151852E-02     264
   7910011       G     -8.657331E-01      8.293480E-01      5.733571E-02     265
-CONT-                 -2.279193E-03      3.986280E-03     -9.159623E-02     266
   7910012       G     -8.726010E-01     -9.369797E-01     -1.983685E-02     267
-CONT-                 -2.343692E-03      4.028465E-03     -9.156279E-02     268
$TITLE   = MSC.NASTRAN JOB CREATED ON 20-FEB-15 AT 15:37:03                  269
$SUBTITLE=DEFAULT                                                            270
$LABEL   =                                                                   271
$EIGENVECTOR                                                                 272
$REAL OUTPUT                                                                 273
$SUBCASE ID =           1                                                    274
$EIGENVALUE =  1.0643041E+03  MODE =     5                                   275
   7710001       G     -2.176566E-01     -5.789333E-03     -3.048671E-01     276
-CONT-                  7.667395E-03     -3.414283E-01     -1.577696E-03     277
   7710002       G     -1.235301E-01     -1.538161E-02      2.337079E+00     278
-CONT-                  3.407473E-02     -3.548873E-01     -4.064001E-03     279
   7710003       G     -2.606806E-01     -4.677743E-02      8.547793E-01     280
-CONT-                  7.471584E-02     -3.136599E-01     -4.375513E-03     281
   7710004       G     -1.348863E-01     -3.499759E-02      2.490573E+00     282
-CONT-                  6.848294E-02     -3.311771E-01     -1.307583E-03     283
   7710005       G     -3.351189E-01     -1.367307E-01      4.487969E-01     284
-CONT-                  2.188123E-01     -2.926863E-01     -7.655947E-03     285
   7710006       G     -2.073798E-01     -8.566144E-02      2.257796E+00     286
-CONT-                  2.137715E-01     -3.120915E-01     -7.011205E-03     287
   7710007       G     -4.556299E-01     -2.127959E-01     -1.745656E+00     288
-CONT-                  3.176518E-01     -2.795982E-01     -9.964571E-03     289
   7710008       G     -3.269813E-01     -1.366699E-01      1.719059E-01     290
-CONT-                  3.150929E-01     -2.914347E-01     -9.710686E-03     291
   7710009       G     -6.061756E-01     -2.805564E-01     -5.022989E+00     292
-CONT-                  3.702179E-01     -2.723055E-01     -1.139967E-02     293
   7710010       G     -4.778366E-01     -1.927300E-01     -3.056534E+00     294
-CONT-                  3.683255E-01     -2.777141E-01     -1.145232E-02     295
   7710011       G     -7.357687E-01     -3.333951E-01     -7.940022E+00     296
-CONT-                  3.825985E-01     -2.715826E-01     -1.200926E-02     297
   7710012       G     -7.720783E-01     -4.725710E-01     -5.963938E+00     298
-CONT-                  3.819103E-01     -2.725513E-01     -1.200715E-02     299
   7810001       G     -2.046194E-01      9.609589E-03     -3.034307E-01     300
-CONT-                 -7.603604E-03     -3.414427E-01      8.479165E-04     301
   7810002       G     -1.111733E-01      1.360865E-02      2.338406E+00     302
-CONT-                 -3.395950E-02     -3.548724E-01      3.325859E-03     303
   7810003       G     -2.393981E-01      4.731824E-02      8.577084E-01     304
-CONT-                 -7.427569E-02     -3.136697E-01      3.579066E-03     305
   7810004       G     -1.150383E-01      3.207126E-02      2.493087E+00     306
-CONT-                 -6.828249E-02     -3.312216E-01      5.616581E-04     307
   7810005       G     -3.026465E-01      1.330219E-01      4.521284E-01     308
-CONT-                 -2.190648E-01     -2.926687E-01      6.860825E-03     309
   7810006       G     -1.763999E-01      7.815846E-02      2.261754E+00     310
-CONT-                 -2.139748E-01     -3.121958E-01      6.215620E-03     311
   7810007       G     -4.118996E-01      2.047265E-01     -1.749918E+00     312
-CONT-                 -3.183646E-01     -2.797133E-01      9.145858E-03     313
   7810008       G     -2.847414E-01      1.245153E-01      1.694554E-01     314
-CONT-                 -3.158081E-01     -2.915426E-01      8.888989E-03     315
   7810009       G     -5.508776E-01      2.678701E-01     -5.037971E+00     316
-CONT-                 -3.710754E-01     -2.723430E-01      1.056191E-02     317
   7810010       G     -4.240823E-01      1.758496E-01     -3.069718E+00     318
-CONT-                 -3.691857E-01     -2.777583E-01      1.061806E-02     319
   7810011       G     -6.713453E-01      3.170345E-01     -7.964394E+00     320
-CONT-                 -3.834737E-01     -2.715842E-01      1.117006E-02     321
   7810012       G     -5.455555E-01      2.226527E-01     -5.986666E+00     322
-CONT-                 -3.827951E-01     -2.725473E-01      1.117026E-02     323
   7910007       G     -7.220335E-01      5.504165E-03     -3.750104E+00     324
-CONT-                  3.959479E-05     -3.455625E-01     -3.658492E-04     325
   7910008       G      4.728631E-02     -3.741061E-03      5.068357E+00     326
-CONT-                  3.839011E-05     -3.470593E-01     -3.652202E-04     327
   7910009       G     -3.253194E-01      3.809538E-03     -1.578127E+00     328
-CONT-                  1.276884E-05     -3.458725E-01     -8.199626E-04     329
   7910010       G      2.697535E-01     -2.634505E-03      5.072056E+00     330
-CONT-                 -2.113405E-03     -3.470202E-01     -1.723606E-04     331
   7910011       G     -3.322673E-01      2.701014E-03     -1.578888E+00     332
-CONT-                  6.895842E-05     -3.458716E-01      8.941497E-05     333
   7910012       G      2.628055E-01     -4.799805E-03      5.071295E+00     334
-CONT-                  2.200169E-03     -3.470185E-01     -5.590469E-04     335
$TITLE   = MSC.NASTRAN JOB CREATED ON 20-FEB-15 AT 15:37:03                  336
$SUBTITLE=DEFAULT                                                            337
$LABEL   =                                                                   338
$EIGENVECTOR                                                                 339
$REAL OUTPUT                                                                 340
$SUBCASE ID =           1                                                    341
$EIGENVALUE =  3.9532468E+03  MODE =     6                                   342
   7710001       G     -8.338243E-02     -1.069367E-01     -3.587483E+00     343
-CONT-                  2.059057E-01      2.455695E-04     -4.189494E-03     344
   7710002       G     -8.061998E-02     -8.344303E-02     -3.409996E+00     345
-CONT-                  1.995295E-01      7.036129E-03     -4.198211E-03     346
   7710003       G     -1.386695E-01     -1.290392E-01     -5.753180E+00     347
-CONT-                  1.700438E-01     -1.838325E-02     -2.653456E-03     348
   7710004       G     -1.238919E-01     -7.981085E-02     -5.386626E+00     349
-CONT-                  1.741805E-01     -3.082390E-03     -4.799242E-03     350
   7710005       G     -1.664434E-01     -6.724179E-02     -6.807494E+00     351
-CONT-                 -6.815036E-03     -5.263188E-02      1.535678E-03     352
   7710006       G     -1.501457E-01     -6.762956E-02     -6.643662E+00     353
-CONT-                  9.986349E-05     -2.084663E-02      2.137353E-04     354
   7710007       G     -1.253093E-01      8.626946E-03     -4.808719E+00     355
-CONT-                 -2.156580E-01     -9.249769E-02      5.793751E-03     356
   7710008       G     -1.064067E-01     -4.831616E-02     -4.846388E+00     357
-CONT-                 -2.111809E-01     -6.373477E-02      5.108398E-03     358
   7710009       G     -1.750742E-02      7.324889E-02     -5.473737E-02     359
-CONT-                 -3.690445E-01     -1.273005E-01      8.791136E-03     360
   7710010       G      6.502245E-03     -2.041092E-02     -1.893756E-01     361
-CONT-                 -3.648973E-01     -1.116721E-01      9.539195E-03     362
   7710011       G      1.025704E-01      1.234321E-01      4.841471E+00     363
-CONT-                 -4.145759E-01     -1.424410E-01      1.120158E-02     364
   7710012       G      4.946242E-02      2.691938E-01      4.716719E+00     365
-CONT-                 -4.143772E-01     -1.393803E-01      1.147766E-02     366
   7810001       G      8.412384E-02     -1.065265E-01      3.614935E+00     367
-CONT-                  2.055566E-01      9.058486E-04     -4.179446E-03     368
   7810002       G      8.108217E-02     -8.318049E-02      3.429195E+00     369
-CONT-                  1.989561E-01     -5.952957E-03     -4.160151E-03     370
   7810003       G      1.396842E-01     -1.280240E-01      5.767443E+00     371
-CONT-                  1.687655E-01      1.969582E-02     -2.727078E-03     372
   7810004       G      1.243268E-01     -7.946699E-02      5.397929E+00     373
-CONT-                  1.730561E-01      4.103027E-03     -4.820967E-03     374
   7810005       G      1.686672E-01     -6.637845E-02      6.788923E+00     375
-CONT-                 -8.661375E-03      5.316642E-02      1.382591E-03     376
   7810006       G      1.519007E-01     -6.809319E-02      6.625793E+00     377
-CONT-                 -1.652772E-03      2.148030E-02      8.345056E-05     378
   7810007       G      1.304622E-01      7.562205E-03      4.785428E+00     379
-CONT-                 -2.139916E-01      9.152387E-02      5.496848E-03     380
   7810008       G      1.112111E-01     -5.015861E-02      4.822941E+00     381
-CONT-                 -2.096545E-01      6.345146E-02      4.817468E-03     382
   7810009       G      2.754258E-02      6.982991E-02      8.266596E-02     383
-CONT-                 -3.645682E-01      1.258094E-01      8.415359E-03     384
   7810010       G      3.261022E-03     -2.396504E-02      2.152458E-01     385
-CONT-                 -3.604967E-01      1.104575E-01      9.153078E-03     386
   7810011       G     -8.804031E-02      1.181695E-01     -4.753019E+00     387
-CONT-                 -4.093515E-01      1.407353E-01      1.078513E-02     388
   7810012       G     -1.188019E-01      1.510944E-02     -4.630279E+00     389
-CONT-                 -4.091614E-01      1.377230E-01      1.105744E-02     390
   7910007       G      1.213809E-03     -3.491841E-01      2.000066E-02     391
-CONT-                  2.001376E-01      5.764875E-04     -4.533211E-03     392
   7910008       G     -7.584430E-05     -1.927204E-02      5.347300E-03     393
-CONT-                  1.987589E-01      5.597102E-04     -4.299950E-03     394
   7910009       G      4.357959E-02     -1.510054E-01      1.915765E+00     395
-CONT-                  1.999286E-01      1.023444E-03     -4.710867E-03     396
   7910010       G      4.303816E-02      1.064240E-01      1.905747E+00     397
-CONT-                  2.011727E-01     -1.524086E-03     -4.688964E-03     398
   7910011       G     -4.245984E-02     -1.510544E-01     -1.882904E+00     399
-CONT-                  1.999202E-01      1.015179E-04     -4.706718E-03     400
   7910012       G     -4.389799E-02      1.064288E-01     -1.895031E+00     401
-CONT-                  2.011858E-01      2.662088E-03     -4.687873E-03     402
$TITLE   = MSC.NASTRAN JOB CREATED ON 20-FEB-15 AT 15:37:03                  403
$SUBTITLE=DEFAULT                                                            404
$LABEL   =                                                                   405
$EIGENVECTOR                                                                 406
$REAL OUTPUT                                                                 407
$SUBCASE ID =           1                                                    408
$EIGENVALUE =  1.0869788E+04  MODE =     7                                   409
   7710001       G     -1.780323E-02     -4.550076E-02     -1.170729E-01     410
-CONT-                  3.829719E-03     -9.189096E-02      5.426688E-03     411
   7710002       G     -7.977469E-03      2.898619E-02      5.390728E-01     412
-CONT-                 -5.141159E-02     -4.063238E-02      1.505798E-02     413
   7710003       G      1.873396E-01     -4.528601E-02      1.797241E-01     414
-CONT-                  3.009044E-02     -7.674567E-02      4.280370E-02     415
   7710004       G      1.381251E-01      1.292761E-01      6.169621E-01     416
-CONT-                  4.572364E-02     -8.706643E-02      2.460314E-02     417
   7710005       G      1.322764E+00      2.609916E-01     -3.038069E-01     418
-CONT-                  6.289269E-02     -2.664427E-02      1.093789E-01     419
   7710006       G      1.144047E+00      7.642054E-01     -7.959211E-02     420
-CONT-                  7.281040E-02     -1.829819E-02      1.028081E-01     421
   7710007       G      3.198161E+00      9.418349E-01     -9.256718E-01     422
-CONT-                  1.797623E-02      1.377651E-02      1.537040E-01     423
   7710008       G      2.913398E+00      1.641857E+00     -9.929644E-01     424
-CONT-                  3.038466E-02      3.345359E-02      1.482314E-01     425
   7710009       G      5.534814E+00      1.843728E+00     -6.985950E-01     426
-CONT-                 -9.040858E-02      4.812574E-02      1.809022E-01     427
   7710010       G      5.176044E+00      2.635439E+00     -1.143432E+00     428
-CONT-                 -7.060373E-02      7.926259E-02      1.761786E-01     429
   7710011       G      7.555806E+00      2.639467E+00      4.782759E-01     430
-CONT-                 -1.861927E-01      9.057798E-02      1.894441E-01     431
   7710012       G      7.226527E+00      3.549522E+00     -3.264510E-01     432
-CONT-                 -1.594873E-01      1.173698E-01      1.847233E-01     433
   7810001       G     -3.391446E-02      4.162960E-02     -1.426031E-01     434
-CONT-                 -5.346107E-03     -9.203151E-02     -4.545826E-03     435
   7810002       G     -2.325508E-02     -2.643454E-02      5.153791E-01     436
-CONT-                  5.024679E-02     -4.058014E-02     -1.418103E-02     437
   7810003       G      1.607724E-01      4.518925E-02      1.399236E-01     438
-CONT-                 -3.179319E-02     -7.766311E-02     -4.182112E-02     439
   7810004       G      1.138112E-01     -1.253951E-01      5.837898E-01     440
-CONT-                 -4.655711E-02     -8.795223E-02     -2.367042E-02     441
   7810005       G      1.279345E+00     -2.556757E-01     -3.451749E-01     442
-CONT-                 -6.336281E-02     -2.932679E-02     -1.080184E-01     443
   7810006       G      1.104157E+00     -7.529100E-01     -1.074396E-01     444
-CONT-                 -7.296033E-02     -2.116990E-02     -1.015298E-01     445
   7810007       G      3.131411E+00     -9.284090E-01     -9.545997E-01     446
-CONT-                 -1.881116E-02      1.008613E-02     -1.516974E-01     447
   7810008       G      2.851690E+00     -1.619747E+00     -1.002478E+00     448
-CONT-                 -3.093901E-02      2.939842E-02     -1.463113E-01     449
   7810009       G      5.437017E+00     -1.818611E+00     -7.188975E-01     450
-CONT-                  8.884438E-02      4.320561E-02     -1.784589E-01     451
   7810010       G      5.084650E+00     -2.599907E+00     -1.137399E+00     452
-CONT-                  6.937652E-02      7.393033E-02     -1.738312E-01     453
   7810011       G      7.431004E+00     -2.603778E+00      4.600590E-01     454
-CONT-                  1.836394E-01      8.450744E-02     -1.869013E-01     455
   7810012       G      7.038447E+00     -3.407197E+00     -3.113498E-01     456
-CONT-                  1.574020E-01      1.109078E-01     -1.822628E-01     457
   7910007       G     -1.756141E-01     -5.437072E-03     -1.030067E+00     458
-CONT-                 -7.073806E-04     -8.982057E-02      4.501353E-04     459
   7910008       G      3.293232E-02      4.504058E-03      1.290726E+00     460
-CONT-                 -7.042491E-04     -8.373115E-02      4.523677E-04     461
   7910009       G     -7.726342E-02      3.535713E-03     -4.719399E-01     462
-CONT-                  5.531633E-03     -9.276201E-02      1.056013E-03     463
   7910010       G      8.104824E-02     -6.244338E-03      1.257121E+00     464
-CONT-                 -8.358567E-03     -9.410859E-02      4.309766E-03     465
   7910011       G     -6.869939E-02     -1.034034E-02     -4.585385E-01     466
-CONT-                 -6.935891E-03     -9.275222E-02     -1.497105E-04     467
   7910012       G      8.961877E-02      1.434689E-02      1.270431E+00     468
-CONT-                  7.035625E-03     -9.414725E-02     -3.439626E-03     469
$TITLE   = MSC.NASTRAN JOB CREATED ON 20-FEB-15 AT 15:37:03                  470
$SUBTITLE=DEFAULT                                                            471
$LABEL   =                                                                   472
$EIGENVECTOR                                                                 473
$REAL OUTPUT                                                                 474
$SUBCASE ID =           1                                                    475
$EIGENVALUE =  1.3044784E+04  MODE =     8                                   476
   7710001       G     -4.059361E-02     -2.906437E-02      5.837519E-01     477
-CONT-                  3.981073E-02     -4.339596E-02     -5.556548E-03     478
   7710002       G     -1.264808E-02     -6.620593E-02      1.089918E+00     479
-CONT-                  1.495866E-01     -1.074917E-01     -1.884474E-02     480
   7710003       G     -1.444919E-01     -1.476987E-01     -5.536286E-01     481
-CONT-                  2.271434E-01      1.819938E-02     -2.448902E-02     482
   7710004       G     -1.126866E-01     -1.593536E-01     -1.438307E-01     483
-CONT-                  2.055290E-01     -1.279107E-02     -1.177418E-02     484
   7710005       G     -6.732790E-01     -3.570108E-01     -5.081908E+00     485
-CONT-                  3.139344E-01     -1.029116E-02     -4.488183E-02     486
   7710006       G     -5.893817E-01     -4.431586E-01     -4.482898E+00     487
-CONT-                  3.132636E-01      8.609804E-03     -4.495265E-02     488
   7710007       G     -1.388694E+00     -5.312428E-01     -7.267563E+00     489
-CONT-                  1.516120E-03     -1.051932E-01     -5.099260E-02     490
   7710008       G     -1.267028E+00     -7.667356E-01     -6.904926E+00     491
-CONT-                  7.121699E-03     -4.570081E-02     -5.181422E-02     492
   7710009       G     -2.085859E+00     -7.473868E-01     -3.563201E+00     493
-CONT-                 -4.085681E-01     -2.257741E-01     -5.059135E-02     494
   7710010       G     -1.933905E+00     -1.108038E+00     -3.382357E+00     495
-CONT-                 -3.975414E-01     -1.791097E-01     -4.685897E-02     496
   7710011       G     -2.548772E+00     -9.302981E-01      3.032682E+00     497
-CONT-                 -5.817886E-01     -2.995138E-01     -4.201941E-02     498
   7710012       G     -2.541189E+00     -9.799165E-01      3.284432E+00     499
-CONT-                 -5.806504E-01     -2.827004E-01     -4.119304E-02     500
   7810001       G     -4.404762E-02      3.190170E-02      4.545503E-01     501
-CONT-                 -4.637028E-02     -4.299998E-02      5.725154E-03     502
   7810002       G     -1.629546E-02      6.872658E-02      9.631212E-01     503
-CONT-                 -1.558875E-01     -1.065046E-01      1.894076E-02     504
   7810003       G     -1.492436E-01      1.499487E-01     -7.394970E-01     505
-CONT-                 -2.273137E-01      1.892585E-02      2.436590E-02     506
   7810004       G     -1.177214E-01      1.612939E-01     -3.351377E-01     507
-CONT-                 -2.088647E-01     -1.029884E-02      1.187601E-02     508
   7810005       G     -6.719800E-01      3.539090E-01     -5.212913E+00     509
-CONT-                 -3.042735E-01     -5.253542E-03      4.428896E-02     510
   7810006       G     -5.911254E-01      4.412885E-01     -4.658569E+00     511
-CONT-                 -3.048973E-01      1.542297E-02      4.445208E-02     512
   7810007       G     -1.376632E+00      5.246516E-01     -7.301261E+00     513
-CONT-                  6.923458E-03     -9.483246E-02      5.014835E-02     514
   7810008       G     -1.260219E+00      7.598526E-01     -7.001476E+00     515
-CONT-                  1.094706E-03     -3.564376E-02      5.105842E-02     516
   7810009       G     -2.060376E+00      7.363788E-01     -3.549978E+00     517
-CONT-                  4.166941E-01     -2.132103E-01      4.942707E-02     518
   7810010       G     -1.915387E+00      1.095096E+00     -3.443371E+00     519
-CONT-                  4.050955E-01     -1.659359E-01      4.582460E-02     520
   7810011       G     -2.510521E+00      9.145560E-01      3.082315E+00     521
-CONT-                  5.914992E-01     -2.850060E-01      4.075619E-02     522
   7810012       G     -2.341362E+00      1.310541E+00      3.247924E+00     523
-CONT-                  5.895744E-01     -2.674979E-01      4.005645E-02     524
   7910007       G     -1.259351E-01      6.026747E-03      8.156714E-02     525
-CONT-                 -3.637710E-03     -5.803927E-02      1.003586E-04     526
   7910008       G     -4.252129E-03      4.796845E-04      1.547567E+00     527
-CONT-                 -3.677781E-03     -6.714736E-02      1.092418E-04     528
   7910009       G     -6.025735E-02      4.563844E-03      4.217721E-01     529
-CONT-                 -5.984926E-03     -5.939171E-02     -1.543870E-03     530
   7910010       G      3.691884E-02      6.234036E-03      1.535585E+00     531
-CONT-                 -1.164252E-02     -6.329246E-02      8.616516E-05     532
   7910011       G     -5.835777E-02      4.106017E-04      4.911981E-01     533
-CONT-                 -1.270866E-03     -5.943622E-02      1.739588E-03     534
   7910012       G      3.887421E-02     -9.830131E-03      1.605339E+00     535
-CONT-                  3.949823E-03     -6.353332E-02      2.018980E-04     536
$TITLE   = MSC.NASTRAN JOB CREATED ON 20-FEB-15 AT 15:37:03                  537
$SUBTITLE=DEFAULT                                                            538
$LABEL   =                                                                   539
$EIGENVECTOR                                                                 540
$REAL OUTPUT                                                                 541
$SUBCASE ID =           1                                                    542
$EIGENVALUE =  1.6710983E+04  MODE =     9                                   543
   7710001       G      5.103338E-01     -2.152504E-01     -1.722402E+00     544
-CONT-                  9.795523E-02     -1.115663E-02      3.032076E-02     545
   7710002       G      4.826971E-01      3.703384E-02     -1.612149E+00     546
-CONT-                  6.298302E-02      7.651954E-03      3.177281E-02     547
   7710003       G      8.018341E-01     -4.926563E-02     -2.393499E+00     548
-CONT-                  2.608105E-02     -7.740203E-02      2.676445E-02     549
   7710004       G      7.840519E-01      9.122196E-02     -2.032357E+00     550
-CONT-                  3.559302E-03     -6.250950E-02      2.618413E-02     551
   7710005       G      1.042930E+00      1.293319E-01     -1.150994E+00     552
-CONT-                 -6.362017E-02     -1.840334E-01      1.140710E-02     553
   7710006       G      1.087263E+00      1.684487E-01     -3.971388E-01     554
-CONT-                 -8.463874E-02     -1.997243E-01      1.458296E-02     555
   7710007       G      1.079746E+00      1.581799E-01      6.511957E-01     556
-CONT-                  2.354003E-02     -2.656619E-01     -5.717175E-03     557
   7710008       G      1.194243E+00      1.511867E-01      2.003235E+00     558
-CONT-                 -2.921320E-03     -3.097809E-01     -1.300429E-03     559
   7710009       G      8.766781E-01      8.505207E-02      4.378314E-01     560
-CONT-                  2.833791E-01     -3.203480E-01     -2.631615E-02     561
   7710010       G      1.067322E+00      7.056027E-02      2.569299E+00     562
-CONT-                  2.415544E-01     -3.897769E-01     -2.112007E-02     563
   7710011       G      5.143088E-01     -3.322208E-02     -2.280225E+00     564
-CONT-                  5.197436E-01     -3.811231E-01     -3.987717E-02     565
   7710012       G      5.008656E-01     -3.284004E-01      5.558376E-01     566
-CONT-                  4.642305E-01     -4.454076E-01     -3.143002E-02     567
   7810001       G     -5.104103E-01     -2.157085E-01      1.721081E+00     568
-CONT-                  9.848329E-02      1.123766E-02      3.030474E-02     569
   7810002       G     -4.828809E-01      3.655911E-02      1.609212E+00     570
-CONT-                  6.397140E-02     -7.289206E-03      3.166998E-02     571
   7810003       G     -8.012285E-01     -5.063630E-02      2.404836E+00     572
-CONT-                  2.798067E-02      7.786090E-02      2.648847E-02     573
   7810004       G     -7.837793E-01      9.020417E-02      2.037151E+00     574
-CONT-                  5.125415E-03      6.318121E-02      2.610405E-02     575
   7810005       G     -1.037609E+00      1.264264E-01      1.199237E+00     576
-CONT-                 -6.022164E-02      1.862329E-01      1.096348E-02     577
   7810006       G     -1.083569E+00      1.648831E-01      4.285013E-01     578
-CONT-                 -8.163533E-02      2.021654E-01      1.418248E-02     579
   7810007       G     -1.065463E+00      1.530275E-01     -5.834473E-01     580
-CONT-                  2.539746E-02      2.702223E-01     -6.517465E-03     581
   7810008       G     -1.183048E+00      1.432129E-01     -1.959473E+00     582
-CONT-                 -1.365289E-03      3.141877E-01     -2.042474E-03     583
   7810009       G     -8.497074E-01      7.572837E-02     -3.909410E-01     584
-CONT-                  2.831802E-01      3.271290E-01     -2.738436E-02     585
   7810010       G     -1.044748E+00      5.664602E-02     -2.553431E+00     586
-CONT-                  2.410368E-01      3.967093E-01     -2.207527E-02     587
   7810011       G     -4.761700E-01     -4.673750E-02      2.289938E+00     588
-CONT-                  5.195196E-01      3.897155E-01     -4.096364E-02     589
   7810012       G     -7.355955E-01     -6.826888E-02     -5.857326E-01     590
-CONT-                  4.634635E-01      4.543713E-01     -3.242217E-02     591
   7910007       G      7.637046E-06     -6.481368E-01     -1.296332E-03     592
-CONT-                  9.539090E-02      2.171076E-05      2.897242E-02     593
   7910008       G     -2.426337E-05      3.018600E-01     -1.787724E-03     594
-CONT-                  9.574549E-02      4.672352E-05      2.858849E-02     595
   7910009       G     -2.747452E-01     -3.582223E-01      9.096749E-01     596
-CONT-                  9.543537E-02      4.677576E-04      2.836142E-02     597
   7910010       G     -2.737376E-01      3.631201E-01      9.017420E-01     598
-CONT-                  8.889539E-02     -3.513894E-03      3.135507E-02     599
   7910011       G      2.747006E-01     -3.581643E-01     -9.125747E-01     600
-CONT-                  9.543256E-02     -3.919943E-04      2.835169E-02     601
   7910012       G      2.736278E-01      3.631290E-01     -9.054386E-01     602
-CONT-                  8.893755E-02      3.572351E-03      3.132184E-02     603
$TITLE   = MSC.NASTRAN JOB CREATED ON 20-FEB-15 AT 15:37:03                  604
$SUBTITLE=DEFAULT                                                            605
$LABEL   =                                                                   606
$EIGENVECTOR                                                                 607
$REAL OUTPUT                                                                 608
$SUBCASE ID =           1                                                    609
$EIGENVALUE =  2.2706049E+04  MODE =    10                                   610
   7710001       G     -5.438264E-02      7.344307E-02     -3.932338E-01     611
-CONT-                 -3.692962E-02     -1.179094E-02     -4.399809E-03     612
   7710002       G     -4.187553E-02     -1.640048E-03     -2.818295E-01     613
-CONT-                  4.551559E-03     -5.215736E-02     -9.055391E-03     614
   7710003       G     -2.024851E-01      1.134774E-01      4.197458E-01     615
-CONT-                 -1.490723E-01      2.416168E-02     -3.058959E-02     616
   7710004       G     -1.520227E-01     -6.720491E-02     -1.737376E-02     617
-CONT-                 -9.920464E-02      5.477731E-02     -1.754553E-02     618
   7710005       G     -9.330640E-01     -7.009317E-02      3.074025E+00     619
-CONT-                 -2.495274E-01      1.698000E-01     -7.331205E-02     620
   7710006       G     -8.710368E-01     -4.898997E-01      1.799193E+00     621
-CONT-                 -2.171263E-01      1.898569E-01     -7.049903E-02     622
   7710007       G     -2.134724E+00     -5.614954E-01      4.305558E+00     623
-CONT-                 -1.255138E-01      3.552511E-01     -9.799169E-02     624
   7710008       G     -2.090646E+00     -1.054755E+00      2.446896E+00     625
-CONT-                 -9.656065E-02      3.574643E-01     -9.744501E-02     626
   7710009       G     -3.565261E+00     -1.158411E+00      2.803579E+00     627
-CONT-                 -5.281853E-02      5.398342E-01     -9.891525E-02     628
   7710010       G     -3.589372E+00     -1.650073E+00      1.616451E-01     629
-CONT-                 -1.242288E-02      5.792160E-01     -1.060108E-01     630
   7710011       G     -4.671348E+00     -1.632784E+00      1.157826E+00     631
-CONT-                 -1.798311E-01      6.790531E-01     -9.508951E-02     632
   7710012       G     -4.337223E+00     -2.047532E+00     -2.408477E+00     633
-CONT-                 -1.116558E-01      7.464138E-01     -1.054491E-01     634
   7810001       G     -2.363470E-02     -6.970667E-02     -1.634541E-01     635
-CONT-                  4.728739E-02     -1.278681E-02      2.810410E-03     636
   7810002       G     -1.152617E-02     -4.847820E-03     -5.133173E-02     637
-CONT-                  4.216201E-03     -5.532699E-02      7.748267E-03     638
   7810003       G     -1.545469E-01     -1.115019E-01      7.161301E-01     639
-CONT-                  1.429087E-01      2.267021E-02      2.930703E-02     640
   7810004       G     -1.062230E-01      6.065831E-02      3.052100E-01     641
-CONT-                  1.001382E-01      4.845969E-02      1.600827E-02     642
   7810005       G     -8.781259E-01      7.826543E-02      3.101019E+00     643
-CONT-                  2.160634E-01      1.564430E-01      7.294590E-02     644
   7810006       G     -8.116140E-01      4.830261E-01      1.958222E+00     645
-CONT-                  1.871630E-01      1.723045E-01      6.999666E-02     646
   7810007       G     -2.076762E+00      5.652737E-01      4.001911E+00     647
-CONT-                  9.989113E-02      3.251167E-01      9.740226E-02     648
   7810008       G     -2.022693E+00      1.046006E+00      2.326563E+00     649
-CONT-                  7.261482E-02      3.286271E-01      9.681284E-02     650
   7810009       G     -3.498040E+00      1.154459E+00      2.478502E+00     651
-CONT-                  4.523361E-02      4.934236E-01      9.864738E-02     652
   7810010       G     -3.506258E+00      1.639437E+00      6.367433E-02     653
-CONT-                  6.627334E-03      5.327527E-01      1.051204E-01     654
   7810011       G     -4.593968E+00      1.623647E+00      1.013764E+00     655
-CONT-                  1.770424E-01      6.197592E-01      9.441962E-02     656
   7810012       G     -4.686534E+00      2.100962E+00     -2.272980E+00     657
-CONT-                  1.118472E-01      6.855896E-01      1.043032E-01     658
   7910007       G     -6.468402E-02     -1.128998E-04     -6.361127E-01     659
-CONT-                  6.539885E-03     -2.432502E-02     -8.766991E-04     660
   7910008       G     -1.559037E-02     -7.888862E-03     -4.227806E-02     661
-CONT-                  6.697439E-03     -2.583035E-02     -9.099608E-04     662
   7910009       G     -2.931601E-02     -8.546743E-03     -4.267203E-01     663
-CONT-                  1.417293E-03     -1.910312E-02     -1.244655E-03     664
   7910010       G      9.159206E-03      5.352150E-03      3.705675E-02     665
-CONT-                  4.996155E-03     -2.393476E-02     -1.025091E-03     666
   7910011       G     -4.596207E-02      1.244448E-02     -5.522204E-01     667
-CONT-                  1.159915E-02     -1.894100E-02     -5.029540E-04     668
   7910012       G     -7.611717E-03     -1.290193E-02     -8.925295E-02     669
-CONT-                  9.163734E-03     -2.317534E-02     -9.478625E-04     670
$TITLE   = MSC.NASTRAN JOB CREATED ON 20-FEB-15 AT 15:37:03                  671
$SUBTITLE=DEFAULT                                                            672
$LABEL   =                                                                   673
$EIGENVECTOR                                                                 674
$REAL OUTPUT                                                                 675
$SUBCASE ID =           1                                                    676
$EIGENVALUE =  2.5413240E+04  MODE =    11                                   677
   7710001       G      4.284757E-01     -6.608406E-02      2.774431E+00     678
-CONT-                 -1.194666E-01     -1.915486E-02      2.255741E-02     679
   7710002       G      4.240040E-01      8.551888E-02      2.830361E+00     680
-CONT-                 -1.073816E-01     -4.600203E-02      1.902810E-02     681
   7710003       G      6.590018E-01     -3.928838E-02      3.486935E+00     682
-CONT-                  9.456297E-02     -4.996597E-02      1.472441E-02     683
   7710004       G      6.399238E-01      8.848466E-02      4.013543E+00     684
-CONT-                 -4.204755E-03     -1.155155E-01      2.048178E-02     685
   7710005       G      6.928319E-01     -1.405242E-01     -4.062157E-01     686
-CONT-                  5.119109E-01     -2.512270E-01     -2.083036E-03     687
   7710006       G      7.929863E-01      5.793469E-02      1.846692E+00     688
-CONT-                  4.513207E-01     -3.245355E-01      1.513294E-03     689
   7710007       G      5.625625E-01     -1.390389E-01     -5.693581E+00     690
-CONT-                  4.810057E-01     -5.178781E-01     -8.794288E-03     691
   7710008       G      7.734478E-01      4.270114E-03     -2.423895E+00     692
-CONT-                  4.398476E-01     -5.172294E-01     -7.146281E-03     693
   7710009       G      4.256578E-01     -1.200038E-01     -6.679720E+00     694
-CONT-                  1.683873E-01     -8.408824E-01     -1.881349E-02     695
   7710010       G      7.532274E-01     -8.899829E-02     -2.514399E+00     696
-CONT-                  1.350797E-01     -8.388917E-01     -6.332604E-03     697
   7710011       G      3.792307E-01     -1.234062E-01     -3.464030E+00     698
-CONT-                  3.051185E-02     -1.106110E+00     -8.594056E-03     699
   7710012       G      1.374047E-01     -1.244299E-01      1.683650E+00     700
-CONT-                 -2.013448E-02     -1.122104E+00     -5.977594E-04     701
   7810001       G     -4.310250E-01     -7.162873E-02     -2.802695E+00     702
-CONT-                 -1.156264E-01      1.803373E-02      2.266588E-02     703
   7810002       G     -4.260372E-01      8.377061E-02     -2.853225E+00     704
-CONT-                 -1.036102E-01      4.371102E-02      1.913000E-02     705
   7810003       G     -6.688130E-01     -5.059009E-02     -3.426272E+00     706
-CONT-                  1.066580E-01      4.989721E-02      1.605999E-02     707
   7810004       G     -6.463727E-01      8.885886E-02     -3.982061E+00     708
-CONT-                  7.006391E-03      1.176145E-01      2.133770E-02     709
   7810005       G     -7.405562E-01     -1.435092E-01      7.366225E-01     710
-CONT-                  5.340481E-01      2.600700E-01      1.779368E-03     711
   7810006       G     -8.374479E-01      8.037399E-02     -1.599485E+00     712
-CONT-                  4.713216E-01      3.343703E-01      5.221370E-03     713
   7810007       G     -6.709493E-01     -1.144410E-01      6.182713E+00     714
-CONT-                  4.931304E-01      5.402780E-01     -3.936034E-03     715
   7810008       G     -8.814327E-01      5.531297E-02      2.789308E+00     716
-CONT-                  4.493251E-01      5.393479E-01     -2.310478E-03     717
   7810009       G     -6.053889E-01     -6.308258E-02      7.029486E+00     718
-CONT-                  1.624802E-01      8.825395E-01     -1.409349E-02     719
   7810010       G     -9.390392E-01     -1.006461E-02      2.682839E+00     720
-CONT-                  1.264755E-01      8.817957E-01     -8.929294E-04     721
   7810011       G     -6.167799E-01     -4.103880E-02      3.525038E+00     722
-CONT-                  2.597007E-02      1.162319E+00     -3.749164E-03     723
   7810012       G     -1.062755E+00     -3.451187E-02     -1.878199E+00     724
-CONT-                 -2.975322E-02      1.182415E+00      5.051313E-03     725
   7910007       G     -2.012168E-03     -4.709034E-02     -2.717072E-02     726
-CONT-                 -1.597060E-01     -7.601850E-04      2.464179E-02     727
   7910008       G     -4.032914E-04      2.257945E-01     -8.696724E-03     728
-CONT-                 -1.645811E-01     -6.896457E-04      2.566758E-02     729
   7910009       G     -2.351284E-01     -7.810581E-02     -1.556565E+00     730
-CONT-                 -1.587048E-01      2.011712E-03      2.435691E-02     731
   7910010       G     -2.358537E-01      1.260927E-01     -1.556598E+00     732
-CONT-                 -1.780193E-01      9.839142E-03      2.854868E-02     733
   7910011       G      2.327681E-01     -7.734625E-02      1.510935E+00     734
-CONT-                 -1.584143E-01     -3.132142E-03      2.433228E-02     735
   7910012       G      2.359278E-01      1.256739E-01      1.539779E+00     736
-CONT-                 -1.781248E-01     -1.119770E-02      2.855062E-02     737
$TITLE   = MSC.NASTRAN JOB CREATED ON 20-FEB-15 AT 15:37:03                  738
$SUBTITLE=DEFAULT                                                            739
$LABEL   =                                                                   740
$EIGENVECTOR                                                                 741
$REAL OUTPUT                                                                 742
$SUBCASE ID =           1                                                    743
$EIGENVALUE =  3.4687002E+04  MODE =    12                                   744
   7710001       G      5.240412E-02      5.695805E-03      1.339590E-01     745
-CONT-                 -2.273270E-03      8.817548E-02      5.009130E-03     746
   7710002       G      1.080819E-02      6.322801E-02     -8.314974E-01     747
-CONT-                 -1.778715E-01      1.874035E-01      2.090822E-02     748
   7710003       G      8.222664E-02      1.005951E-01      5.626699E-01     749
-CONT-                 -8.947256E-02     -1.123753E-01      1.807339E-02     750
   7710004       G      9.222905E-02      1.655211E-01      9.018787E-01     751
-CONT-                 -2.051493E-01     -1.286584E-01      4.195532E-03     752
   7710005       G      2.593102E-01      1.274628E-01      2.269998E+00     753
-CONT-                  1.710692E-01     -4.478735E-01      1.674726E-02     754
   7710006       G      4.014949E-01      2.935654E-01      4.896210E+00     755
-CONT-                  7.381502E-02     -5.812465E-01      2.359428E-02     756
   7710007       G      4.651001E-01      1.264217E-01     -1.815312E-02     757
-CONT-                  6.291244E-01     -7.366320E-01      1.519744E-02     758
   7710008       G      7.372665E-01      4.408551E-01      4.760794E+00     759
-CONT-                  5.492087E-01     -8.472737E-01      1.988887E-02     760
   7710009       G      6.667587E-01      2.064805E-01     -5.742057E+00     761
-CONT-                  8.319308E-01     -1.058274E+00      4.848653E-03     762
   7710010       G      1.058481E+00      5.860967E-01      7.844364E-01     763
-CONT-                  7.694938E-01     -1.114419E+00      1.736462E-02     764
   7710011       G      9.035756E-01      2.873436E-01     -9.290985E+00     765
-CONT-                  7.345254E-01     -1.382187E+00      1.901638E-02     766
   7710012       G      5.501131E-01      2.662534E-01     -1.597293E+00     767
-CONT-                  6.934180E-01     -1.374471E+00      2.276268E-02     768
   7810001       G      4.584244E-02     -6.369052E-03      8.681777E-02     769
-CONT-                 -1.741302E-05      8.762417E-02     -4.769757E-03     770
   7810002       G      4.302984E-03     -6.276582E-02     -8.766942E-01     771
-CONT-                  1.783269E-01      1.885859E-01     -2.092105E-02     772
   7810003       G      7.215309E-02     -1.018835E-01      5.113486E-01     773
-CONT-                  9.275415E-02     -1.162274E-01     -1.771609E-02     774
   7810004       G      8.354869E-02     -1.664148E-01      8.627191E-01     775
-CONT-                  2.072770E-01     -1.315784E-01     -3.876237E-03     776
   7810005       G      2.496485E-01     -1.305004E-01      2.302891E+00     777
-CONT-                 -1.675802E-01     -4.545629E-01     -1.685670E-02     778
   7810006       G      3.941938E-01     -2.960203E-01      4.955591E+00     779
-CONT-                 -6.949229E-02     -5.891435E-01     -2.378126E-02     780
   7810007       G      4.564311E-01     -1.284366E-01      5.740677E-02     781
-CONT-                 -6.333697E-01     -7.448441E-01     -1.508301E-02     782
   7810008       G      7.321716E-01     -4.443902E-01      4.885637E+00     783
-CONT-                 -5.528380E-01     -8.571800E-01     -1.990659E-02     784
   7810009       G      6.563357E-01     -2.068278E-01     -5.741570E+00     785
-CONT-                 -8.445132E-01     -1.066167E+00     -4.678527E-03     786
   7810010       G      1.051796E+00     -5.902438E-01      8.468780E-01     787
-CONT-                 -7.816648E-01     -1.123213E+00     -1.719166E-02     788
   7810011       G      8.914779E-01     -2.864946E-01     -9.401633E+00     789
-CONT-                 -7.476134E-01     -1.390723E+00     -1.890021E-02     790
   7810012       G      1.366546E+00     -6.865533E-01     -1.644946E+00     791
-CONT-                 -7.068419E-01     -1.382443E+00     -2.255245E-02     792
   7910007       G      2.853529E-01      1.112949E-04      1.452631E+00     793
-CONT-                 -1.326859E-03      1.384268E-01      1.739371E-04     794
   7910008       G     -1.675928E-02      1.489564E-03     -2.060082E+00     795
-CONT-                 -1.334970E-03      1.459602E-01      1.716538E-04     796
   7910009       G      1.238349E-01      4.422483E-04      5.606402E-01     797
-CONT-                 -1.600406E-03      1.373552E-01      3.781933E-03     798
   7910010       G     -1.095194E-01     -1.055224E-02     -2.089705E+00     799
-CONT-                  4.011411E-02      1.578579E-01     -7.271033E-03     800
   7910011       G      1.271403E-01     -1.127774E-03      5.864819E-01     801
-CONT-                 -1.067441E-03      1.373516E-01     -3.380912E-03     802
   7910012       G     -1.062655E-01      1.175002E-02     -2.064160E+00     803
-CONT-                 -4.248050E-02      1.576381E-01      7.574346E-03     804
$TITLE   = MSC.NASTRAN JOB CREATED ON 20-FEB-15 AT 15:37:03                  805
$SUBTITLE=DEFAULT                                                            806
$LABEL   =                                                                   807
$EIGENVECTOR                                                                 808
$REAL OUTPUT                                                                 809
$SUBCASE ID =           1                                                    810
$EIGENVALUE =  3.7026674E+04  MODE =    13                                   811
   7710001       G      2.573777E-01      2.586168E-02      3.148994E+00     812
-CONT-                 -1.675211E-01      4.285164E-02      6.133332E-03     813
   7710002       G      2.626857E-01      1.138783E-02      3.003482E+00     814
-CONT-                  2.635102E-02     -8.397232E-02     -1.157217E-02     815
   7710003       G      3.698354E-01     -6.616680E-02      3.492234E+00     816
-CONT-                  6.828465E-02      2.607961E-01     -1.280956E-02     817
   7710004       G      2.849440E-01     -1.010927E-01      2.519197E+00     818
-CONT-                  1.404659E-01      2.315057E-01      7.138326E-03     819
   7710005       G      1.808252E-01     -1.995704E-01     -1.154956E+00     820
-CONT-                  1.094944E-01      5.476653E-01     -2.191446E-02     821
   7710006       G      1.071672E-02     -2.789791E-01     -3.657283E+00     822
-CONT-                  1.853178E-01      6.495262E-01     -2.763606E-02     823
   7710007       G     -1.556004E-01     -2.076533E-01     -2.902919E+00     824
-CONT-                 -4.399620E-01      7.258928E-01     -2.381863E-02     825
   7710008       G     -4.144936E-01     -4.931081E-01     -7.351268E+00     826
-CONT-                 -3.688206E-01      8.670236E-01     -2.910495E-02     827
   7710009       G     -4.790372E-01     -2.804426E-01      2.807676E+00     828
-CONT-                 -9.670950E-01      8.829545E-01     -1.739554E-02     829
   7710010       G     -8.050992E-01     -7.366265E-01     -3.226980E+00     830
-CONT-                 -9.102880E-01      9.628218E-01     -2.370330E-02     831
   7710011       G     -7.696915E-01     -3.671047E-01      9.567679E+00     832
-CONT-                 -9.737227E-01      1.085622E+00     -2.645391E-02     833
   7710012       G     -4.759457E-01     -3.057102E-01      2.792679E+00     834
-CONT-                 -9.606709E-01      1.064996E+00     -2.490693E-02     835
   7810001       G     -2.586919E-01      2.504714E-02     -3.160324E+00     836
-CONT-                 -1.669177E-01     -4.479958E-02      6.178922E-03     837
   7810002       G     -2.632553E-01      1.169077E-02     -2.997072E+00     838
-CONT-                  2.519968E-02      8.078495E-02     -1.135562E-02     839
   7810003       G     -3.727447E-01     -6.679116E-02     -3.492778E+00     840
-CONT-                  6.984624E-02     -2.610647E-01     -1.203612E-02     841
   7810004       G     -2.870535E-01     -9.945565E-02     -2.521197E+00     842
-CONT-                  1.397565E-01     -2.309435E-01      7.357694E-03     843
   7810005       G     -1.919677E-01     -1.991460E-01      1.188171E+00     844
-CONT-                  1.152228E-01     -5.430918E-01     -2.110937E-02     845
   7810006       G     -2.222910E-02     -2.725023E-01      3.655763E+00     846
-CONT-                  1.896417E-01     -6.432629E-01     -2.677631E-02     847
   7810007       G      1.322685E-01     -2.032322E-01      3.012353E+00     848
-CONT-                 -4.290181E-01     -7.163480E-01     -2.275840E-02     849
   7810008       G      3.890523E-01     -4.800852E-01      7.393580E+00     850
-CONT-                 -3.596782E-01     -8.558504E-01     -2.806490E-02     851
   7810009       G      4.403869E-01     -2.689793E-01     -2.639184E+00     852
-CONT-                 -9.598631E-01     -8.634256E-01     -1.650096E-02     853
   7810010       G      7.612113E-01     -7.168878E-01      3.291641E+00     854
-CONT-                 -9.044330E-01     -9.426607E-01     -2.244207E-02     855
   7810011       G      7.160765E-01     -3.493672E-01     -9.441161E+00     856
-CONT-                 -9.695931E-01     -1.057302E+00     -2.521457E-02     857
   7810012       G      1.053473E+00     -8.572221E-01     -2.804162E+00     858
-CONT-                 -9.582930E-01     -1.036045E+00     -2.342484E-02     859
   7910007       G     -2.648415E-03      1.703870E-01     -1.877719E-02     860
-CONT-                 -1.769360E-01     -1.266209E-03      1.237918E-02     861
   7910008       G      1.345798E-04      9.047433E-02      1.303733E-02     862
-CONT-                 -1.791760E-01     -1.266802E-03      1.339521E-02     863
   7910009       G     -1.215671E-01      4.677739E-02     -1.719120E+00     864
-CONT-                 -1.756293E-01     -1.916546E-03      1.663398E-02     865
   7910010       G     -1.175641E-01     -2.771368E-02     -1.669175E+00     866
-CONT-                 -1.526955E-01      1.364196E-02      9.007933E-03     867
   7910011       G      1.191691E-01      4.689953E-02      1.697201E+00     868
-CONT-                 -1.755964E-01     -5.320531E-04      1.666228E-02     869
   7910012       G      1.194228E-01     -2.787144E-02      1.695493E+00     870
-CONT-                 -1.522777E-01     -1.641896E-02      8.926425E-03     871
$TITLE   = MSC.NASTRAN JOB CREATED ON 20-FEB-15 AT 15:37:03                  872
$SUBTITLE=DEFAULT                                                            873
$LABEL   =                                                                   874
$EIGENVECTOR                                                                 875
$REAL OUTPUT                                                                 876
$SUBCASE ID =           1                                                    877
$EIGENVALUE =  6.8354287E+04  MODE =    14                                   878
   7710001       G      3.282888E+00     -9.327990E-01     -9.809800E-02     879
-CONT-                 -8.641390E-04      2.606985E-02      1.744828E-01     880
   7710002       G      3.144120E+00      2.941239E-01     -2.194154E-02     881
-CONT-                  2.038338E-01     -1.454625E-01      1.441319E-01     882
   7710003       G      4.916921E+00     -1.458043E-01     -4.123217E-01     883
-CONT-                 -1.356829E-02      8.554137E-02      8.093400E-02     884
   7710004       G      4.729323E+00      2.937424E-01     -8.735709E-01     885
-CONT-                  5.477899E-04      1.118658E-01      1.358376E-01     886
   7710005       G      4.734292E+00      1.593263E-01      5.953049E-02     887
-CONT-                 -1.308383E-01      1.300689E-01     -1.014740E-01     888
   7710006       G      4.831971E+00     -2.959992E-01     -8.132050E-01     889
-CONT-                 -1.148159E-01      1.535646E-01     -8.430246E-02     890
   7710007       G      2.205865E+00     -6.099189E-01      1.159815E+00     891
-CONT-                 -1.299506E-01      1.810874E-01     -2.458360E-01     892
   7710008       G      2.561339E+00     -1.741827E+00      1.007655E-01     893
-CONT-                 -1.226345E-01      1.792916E-01     -2.310412E-01     894
   7710009       G     -1.882242E+00     -2.116040E+00      1.303156E+00     895
-CONT-                 -5.347577E-02      2.283437E-01     -3.301925E-01     896
   7710010       G     -1.374608E+00     -3.625750E+00      1.641474E-01     897
-CONT-                 -5.021333E-02      2.258621E-01     -3.222407E-01     898
   7710011       G     -5.633071E+00     -3.598876E+00      7.753806E-01     899
-CONT-                 -7.104081E-02      2.292663E-01     -3.489121E-01     900
   7710012       G     -4.941495E+00     -5.174825E+00     -4.599325E-01     901
-CONT-                 -5.992474E-02      2.523517E-01     -3.468195E-01     902
   7810001       G     -3.282713E+00     -9.330288E-01      9.803037E-02     903
-CONT-                 -5.941680E-04     -2.604818E-02      1.744842E-01     904
   7810002       G     -3.143971E+00      2.940179E-01      2.209389E-02     905
-CONT-                  2.039271E-01      1.454731E-01      1.441231E-01     906
   7810003       G     -4.916509E+00     -1.460371E-01      4.120758E-01     907
-CONT-                 -1.433675E-02     -8.503768E-02      8.102383E-02     908
   7810004       G     -4.729124E+00      2.935078E-01      8.716935E-01     909
-CONT-                 -1.309169E-05     -1.112608E-01      1.358195E-01     910
   7810005       G     -4.732364E+00      1.587079E-01     -6.564933E-02     911
-CONT-                 -1.305039E-01     -1.282148E-01     -1.016787E-01     912
   7810006       G     -4.831070E+00     -2.973595E-01      7.975363E-01     913
-CONT-                 -1.147446E-01     -1.514920E-01     -8.449016E-02     914
   7810007       G     -2.200393E+00     -6.115791E-01     -1.191460E+00     915
-CONT-                 -1.322667E-01     -1.772433E-01     -2.461014E-01     916
   7810008       G     -2.557553E+00     -1.745185E+00     -1.446228E-01     917
-CONT-                 -1.245048E-01     -1.759803E-01     -2.312401E-01     918
   7810009       G      1.892319E+00     -2.119962E+00     -1.350874E+00     919
-CONT-                 -5.040193E-02     -2.280541E-01     -3.305199E-01     920
   7810010       G      1.383464E+00     -3.630645E+00     -2.205212E-01     921
-CONT-                 -4.706165E-02     -2.250202E-01     -3.226755E-01     922
   7810011       G      5.649020E+00     -3.605391E+00     -7.667901E-01     923
-CONT-                 -6.522886E-02     -2.317535E-01     -3.494084E-01     924
   7810012       G      5.108984E+00     -5.217485E+00      4.689311E-01     925
-CONT-                 -5.346218E-02     -2.551069E-01     -3.474270E-01     926
   7910007       G     -1.441724E-05     -2.831893E+00     -9.844177E-04     927
-CONT-                  4.424185E-03     -6.035879E-05      1.817721E-01     928
   7910008       G      1.247802E-04      1.789688E+00      5.749318E-04     929
-CONT-                  1.061542E-02     -4.831898E-05      1.790408E-01     930
   7910009       G     -1.727893E+00     -1.679542E+00      3.638076E-02     931
-CONT-                  1.240918E-02     -3.207472E-03      1.881391E-01     932
   7910010       G     -1.712726E+00      1.785902E+00      4.185653E-02     933
-CONT-                  1.522160E-02      2.609364E-03      1.942414E-01     934
   7910011       G      1.727996E+00     -1.679512E+00     -3.759847E-02     935
-CONT-                  1.240842E-02      3.105624E-03      1.881377E-01     936
   7910012       G      1.713037E+00      1.785892E+00     -4.076183E-02     937
-CONT-                  1.531949E-02     -2.751972E-03      1.942021E-01     938
$TITLE   = MSC.NASTRAN JOB CREATED ON 20-FEB-15 AT 15:37:03                  939
$SUBTITLE=DEFAULT                                                            940
$LABEL   =                                                                   941
$EIGENVECTOR                                                                 942
$REAL OUTPUT                                                                 943
$SUBCASE ID =           1                                                    944
$EIGENVALUE =  1.0528635E+05  MODE =    15                                   945
   7710001       G      2.830537E-03      1.972046E-01      1.115373E-01     946
-CONT-                 -1.859822E-01     -1.343025E-02      8.053032E-03     947
   7710002       G     -2.948807E-02      1.876199E-01     -3.348080E-01     948
-CONT-                 -4.397703E-01      1.055002E-01      4.192958E-02     949
   7710003       G      9.670552E-02      4.338118E-01      4.126723E+00     950
-CONT-                 -5.173003E-01     -8.661364E-02      1.278890E-02     951
   7710004       G      1.060355E-01      3.221215E-01      3.601215E+00     952
-CONT-                 -5.021797E-01     -9.596838E-02      1.023374E-02     953
   7710005       G      1.924928E-01      2.246707E-01      7.969953E+00     954
-CONT-                  1.672391E-01      1.710243E-01     -1.569922E-02     955
   7710006       G      1.620994E-01      2.359187E-01      7.764877E+00     956
-CONT-                  1.824378E-01      5.839321E-02     -9.363370E-03     957
   7710007       G     -1.241756E-01     -2.313479E-02     -1.052169E+00     958
-CONT-                  5.382156E-01      4.704669E-01     -2.556112E-02     959
   7710008       G     -2.678414E-01      2.844728E-02     -2.460774E+00     960
-CONT-                  6.220933E-01      6.190513E-01     -3.770480E-02     961
   7710009       G     -4.528451E-01     -5.327216E-02     -3.961613E+00     962
-CONT-                 -7.591913E-01      4.564607E-01     -1.600359E-02     963
   7710010       G     -7.065935E-01     -3.375906E-01     -7.970166E+00     964
-CONT-                 -6.313279E-01      7.050817E-01     -1.739060E-02     965
   7710011       G     -4.695023E-01     -1.170959E-02      6.445031E+00     966
-CONT-                 -1.365669E+00      5.109086E-01     -3.046829E-04     967
   7710012       G     -3.623435E-01      3.015888E-01      1.497540E+00     968
-CONT-                 -1.362585E+00      5.233480E-01      7.020548E-03     969
   7810001       G      1.037372E-02     -1.937003E-01      1.621444E-01     970
-CONT-                  1.861464E-01     -1.401054E-02     -8.369745E-03     971
   7810002       G     -2.090243E-02     -1.870722E-01     -2.736963E-01     972
-CONT-                  4.375325E-01      1.018454E-01     -4.180169E-02     973
   7810003       G      1.058856E-01     -4.275858E-01      4.140828E+00     974
-CONT-                  5.050435E-01     -8.735545E-02     -1.279405E-02     975
   7810004       G      1.159591E-01     -3.197092E-01      3.645601E+00     976
-CONT-                  4.953285E-01     -9.955791E-02     -1.032430E-02     977
   7810005       G      1.923749E-01     -2.170059E-01      7.827342E+00     978
-CONT-                 -1.770628E-01      1.577896E-01      1.611092E-02     979
   7810006       G      1.676290E-01     -2.299192E-01      7.698540E+00     980
-CONT-                 -1.908401E-01      4.636411E-02      9.865511E-03     981
   7810007       G     -1.285013E-01      2.624740E-02     -1.026363E+00     982
-CONT-                 -5.227697E-01      4.448583E-01      2.572267E-02     983
   7810008       G     -2.630148E-01     -2.094030E-02     -2.345405E+00     984
-CONT-                 -6.072753E-01      5.934384E-01      3.746261E-02     985
   7810009       G     -4.593189E-01      5.969481E-02     -3.761573E+00     986
-CONT-                  7.401696E-01      4.428368E-01      1.607171E-02     987
[...]
-CONT-                  5.555528E-02      2.251011E-01      8.382562E-02    3105
   7710009       G      5.950144E-01      3.121975E+00      2.241293E+00    3106
-CONT-                 -4.277823E-01      8.041846E-02     -1.198762E-01    3107
   7710010       G      8.262492E-01      2.363063E+00      1.208346E+00    3108
-CONT-                 -4.278721E-01      6.196480E-03     -1.178644E-01    3109
   7710011       G     -2.045164E+00      2.389680E+00     -3.352736E-02    3110
-CONT-                  6.072891E-01      1.554033E-01     -2.879518E-01    3111
   7710012       G     -1.528457E+00      1.062653E+00      5.762136E-01    3112
-CONT-                  3.463071E-01      2.672829E-02     -2.537568E-01    3113
   7810001       G     -2.754060E+00     -6.232328E-02     -8.940555E-01    3114
-CONT-                 -5.439472E-02     -1.512641E-01      2.522949E-02    3115
   7810002       G     -2.603074E+00     -1.219829E-01      6.515430E-01    3116
-CONT-                  3.770733E-01     -1.548112E-01     -2.463466E-02    3117
   7810003       G     -2.899154E+00     -1.248162E-01     -1.441030E+00    3118
-CONT-                 -2.126856E-01     -2.118496E-01     -6.281788E-02    3119
   7810004       G     -2.914579E+00     -4.203787E-01     -1.027332E-01    3120
-CONT-                 -2.592701E-01     -1.981769E-01     -1.101805E-03    3121
   7810005       G     -8.598900E-01     -1.353953E+00      4.460823E-02    3122
-CONT-                  2.358150E-01     -1.575169E-01     -1.757895E-01    3123
   7810006       G     -1.071149E+00     -2.005189E+00      2.221300E-01    3124
-CONT-                  1.870215E-01     -1.100090E-01     -1.802699E-01    3125
   7810007       G      1.099202E+00     -2.574700E+00      1.229438E+00    3126
-CONT-                 -1.512555E-01      8.153941E-02     -5.741918E-02    3127
   7810008       G      1.001688E+00     -2.900042E+00      1.314133E+00    3128
-CONT-                 -1.543282E-01     -7.674315E-03     -7.651581E-02    3129
   7810009       G      3.289034E-01     -2.916425E+00     -1.790554E+00    3130
-CONT-                  7.740522E-02     -9.169419E-02      1.910862E-01    3131
   7810010       G      5.692940E-01     -2.210819E+00     -1.714654E+00    3132
-CONT-                 -1.975484E-02      4.164496E-02      1.609342E-01    3133
   7810011       G     -2.426597E+00     -2.145152E+00      1.751988E+00    3134
-CONT-                  4.185031E-01      1.725096E-01      2.822549E-01    3135
   7810012       G     -2.019501E+00     -8.548266E-01      2.155028E-01    3136
-CONT-                  2.397526E-01      2.041205E-01      2.712781E-01    3137
   7910007       G     -1.915787E+00      7.120236E-03     -3.199313E-01    3138
-CONT-                 -3.998322E-02     -6.145963E-02      7.325150E-03    3139
   7910008       G     -1.968827E+00      9.505599E-02      3.929460E-01    3140
-CONT-                 -6.252967E-02     -7.390186E-02      1.504295E-02    3141
   7910009       G     -2.062226E+00     -3.317228E-02     -7.650652E-01    3142
-CONT-                 -6.797837E-02      6.105626E-03      7.081520E-02    3143
   7910010       G     -2.013576E+00      1.156445E-01      2.205269E-01    3144
-CONT-                  1.848427E-01     -1.572014E-02      5.671241E-02    3145
   7910011       G     -1.887986E+00      3.378475E-02      3.696958E-01    3146
-CONT-                  3.707812E-03      1.774521E-02     -1.956977E-02    3147
   7910012       G     -1.874727E+00     -9.421002E-02      8.320041E-01    3148
-CONT-                  3.313040E-01     -1.153790E-01     -1.509323E-01    3149
$TITLE   = MSC.NASTRAN JOB CREATED ON 20-FEB-15 AT 15:37:03                 3150
$SUBTITLE=DEFAULT                                                           3151
$LABEL   =                                                                  3152
$EIGENVECTOR                                                                3153
$REAL OUTPUT                                                                3154
$SUBCASE ID =           1                                                   3155
$EIGENVALUE =  1.0004338E+06  MODE =    48                                  3156
   7710001       G     -1.781319E+00     -1.535756E-01     -7.906739E-01    3157
-CONT-                  2.190635E-01     -1.699372E-01     -6.037217E-03    3158
   7710002       G     -1.075822E+00      7.669459E-02      4.113414E+00    3159
-CONT-                  3.013791E-01     -1.793772E+00     -4.733346E-02    3160
   7710003       G     -1.763576E+00     -1.733066E-01     -3.311094E+00    3161
-CONT-                  3.772566E-01     -3.477285E-01      5.719363E-02    3162
   7710004       G     -1.728516E+00      1.479642E-01     -1.180353E+00    3163
-CONT-                  3.675934E-01     -2.696025E-01      1.890149E-02    3164
   7710005       G     -2.664339E-01      8.009332E-01      1.062385E+00    3165
-CONT-                 -4.531386E-01     -4.227436E-01      1.104203E-01    3166
   7710006       G     -2.874815E-01      1.171516E+00      2.239747E+00    3167
-CONT-                 -3.776350E-01     -4.777968E-01      1.294129E-01    3168
   7710007       G      9.560084E-01      1.278111E+00      5.945478E+00    3169
-CONT-                 -4.372450E-02     -7.497270E-02      8.504567E-03    3170
   7710008       G      1.059574E+00      1.494565E+00      6.937282E+00    3171
-CONT-                  1.913362E-01     -4.049316E-01      4.746736E-02    3172
   7710009       G      1.019894E-01      1.097270E+00     -4.854552E+00    3173
-CONT-                  4.060982E-01     -2.229867E-01     -1.862852E-01    3174
   7710010       G      2.517134E-01      7.531424E-01     -3.546553E+00    3175
-CONT-                  5.586978E-01      7.659745E-02     -1.417345E-01    3176
   7710011       G     -1.663193E+00      5.683742E-01      2.672127E+00    3177
-CONT-                 -1.330481E+00      9.672786E-02     -1.650446E-01    3178
   7710012       G     -1.338212E+00      7.816490E-02     -4.067698E-01    3179
-CONT-                 -7.787847E-01      2.884209E-01     -1.740910E-01    3180
   7810001       G     -1.262092E+00     -2.123053E-03      1.089327E-01    3181
-CONT-                 -5.696915E-03      1.390030E-02      3.771917E-03    3182
   7810002       G     -1.383987E+00     -5.670713E-02     -6.508673E-01    3183
-CONT-                  1.510006E-01      4.407566E-01     -2.063861E-02    3184
   7810003       G     -1.283920E+00     -7.175477E-02     -3.862470E-01    3185
-CONT-                 -6.030672E-02      5.781314E-03     -2.808536E-02    3186
   7810004       G     -1.328600E+00     -1.970380E-01     -3.389599E-01    3187
-CONT-                 -5.631402E-02      1.831313E-02      1.609589E-03    3188
   7810005       G     -4.457818E-01     -6.105436E-01      5.094807E-02    3189
-CONT-                  9.741877E-02     -1.957261E-02     -7.480212E-02    3190
   7810006       G     -5.539109E-01     -8.868222E-01     -8.604858E-02    3191
-CONT-                  9.032391E-02     -3.361756E-03     -7.641377E-02    3192
   7810007       G      4.008457E-01     -1.161179E+00      4.139719E-01    3193
-CONT-                 -5.393609E-02      4.490575E-02     -2.735252E-02    3194
   7810008       G      3.492602E-01     -1.306318E+00      3.697825E-01    3195
-CONT-                 -5.172607E-02      1.336155E-02     -3.514958E-02    3196
   7810009       G      1.165889E-01     -1.345323E+00     -6.146254E-01    3197
-CONT-                  4.474283E-02     -2.397528E-02      7.791857E-02    3198
   7810010       G      2.114038E-01     -1.048111E+00     -6.682096E-01    3199
-CONT-                  8.284099E-03      2.783150E-02      6.607717E-02    3200
   7810011       G     -1.046040E+00     -1.028376E+00      6.882793E-01    3201
-CONT-                  1.441702E-01      7.595004E-02      1.200657E-01    3202
   7810012       G     -8.695597E-01     -4.858833E-01      9.597375E-02    3203
-CONT-                  8.633453E-02      7.985545E-02      1.140298E-01    3204
   7910007       G     -1.120098E+00      1.212708E-01      7.467904E-03    3205
-CONT-                  1.645749E-02     -1.356033E-02     -1.122782E-02    3206
   7910008       G     -1.185751E+00     -1.258796E-01     -4.361033E-02    3207
-CONT-                  8.058314E-03     -4.490033E-03     -1.137868E-02    3208
   7910009       G     -1.074438E+00      5.937251E-02      1.158990E-01    3209
-CONT-                 -5.091736E-03      2.617514E-02      1.137116E-02    3210
   7910010       G     -1.086849E+00     -8.537131E-02      3.934780E-02    3211
-CONT-                  5.985403E-02      6.755762E-02      2.075613E-02    3212
   7910011       G     -1.304592E+00      4.988971E-02     -2.311304E-01    3213
-CONT-                  1.984800E-02      6.553584E-03     -5.460694E-02    3214
   7910012       G     -1.289007E+00     -9.733997E-02      7.191749E-03    3215
-CONT-                 -3.492762E-01      3.301539E-02      6.367592E-03    3216
$TITLE   = MSC.NASTRAN JOB CREATED ON 20-FEB-15 AT 15:37:03                 3217
$SUBTITLE=DEFAULT                                                           3218
$LABEL   =                                                                  3219
$EIGENVECTOR                                                                3220
$REAL OUTPUT                                                                3221
$SUBCASE ID =           1                                                   3222
$EIGENVALUE =  1.0779695E+06  MODE =    49                                  3223
   7710001       G     -5.948780E-01     -2.991851E-01      5.380517E-01    3224
-CONT-                  1.234695E-02      5.901410E-02     -3.266167E-02    3225
   7710002       G     -6.293272E-01     -5.100986E-01     -1.166127E-01    3226
-CONT-                  1.609601E-01      2.109724E-01     -4.727057E-02    3227
   7710003       G     -8.220362E-01     -4.728445E-01     -1.052939E-02    3228
-CONT-                 -1.104496E-02      7.144490E-02      7.228682E-03    3229
   7710004       G     -8.676153E-01     -4.848670E-01     -4.073338E-01    3230
-CONT-                 -2.511263E-02      8.721972E-02     -1.869833E-02    3231
   7710005       G     -1.274411E-01     -3.258152E-01      2.103944E-01    3232
-CONT-                 -3.004192E-02      3.636670E-02      7.349992E-02    3233
   7710006       G     -2.570946E-01     -3.015680E-02     -2.179669E-03    3234
-CONT-                 -3.809055E-02      2.248713E-02      7.356414E-02    3235
   7710007       G      8.175598E-01      8.748988E-02      1.851583E-02    3236
-CONT-                  1.369259E-02      1.710845E-02      3.849784E-02    3237
   7710008       G      7.412739E-01      2.697137E-01     -1.623641E-02    3238
-CONT-                  1.598286E-02      1.164081E-02      4.737725E-02    3239
   7710009       G      6.569647E-01      2.157322E-01     -1.007909E-01    3240
-CONT-                 -2.411876E-02      6.918866E-03     -7.053874E-02    3241
   7710010       G      7.499794E-01     -6.657791E-02     -1.932633E-01    3242
-CONT-                 -7.562624E-03      2.076956E-02     -5.784962E-02    3243
   7710011       G     -5.200529E-01     -1.587752E-01      2.029395E-01    3244
-CONT-                 -6.589907E-02      3.831233E-02     -1.283624E-01    3245
   7710012       G     -2.962008E-01     -6.809964E-01     -1.010937E-01    3246
-CONT-                 -3.558181E-02      5.162110E-02     -1.131530E-01    3247
   7810001       G      5.872884E-01     -2.891001E-01     -5.653320E-01    3248
-CONT-                  5.777571E-03     -6.163597E-02     -3.319340E-02    3249
   7810002       G      6.368317E-01     -5.066322E-01      1.896618E-01    3250
-CONT-                  1.371076E-01     -2.599787E-01     -4.493309E-02    3251
   7810003       G      8.188332E-01     -4.644010E-01     -4.877624E-02    3252
-CONT-                 -8.902361E-03     -7.868800E-02      6.556500E-03    3253
   7810004       G      8.656668E-01     -4.786607E-01      3.745471E-01    3254
-CONT-                 -2.193452E-02     -9.280961E-02     -1.922076E-02    3255
   7810005       G      1.295123E-01     -3.136860E-01     -1.562099E-01    3256
-CONT-                 -3.190936E-02     -4.618797E-02      7.367324E-02    3257
   7810006       G      2.642209E-01     -2.087071E-02      1.220913E-01    3258
-CONT-                 -4.035830E-02     -4.124048E-02      7.320010E-02    3259
   7810007       G     -8.165140E-01      1.084117E-01      4.275807E-02    3260
-CONT-                  1.612237E-02     -3.058469E-02      3.893806E-02    3261
   7810008       G     -7.330656E-01      2.880115E-01      1.491721E-01    3262
-CONT-                  1.104877E-02     -3.009750E-02      4.715843E-02    3263
   7810009       G     -6.580346E-01      2.442770E-01      5.277185E-02    3264
-CONT-                 -3.443866E-02     -1.356629E-02     -7.004594E-02    3265
   7810010       G     -7.500217E-01     -4.245026E-02      1.900898E-01    3266
-CONT-                 -2.005257E-02     -2.375531E-02     -5.752303E-02    3267
   7810011       G      5.248679E-01     -1.305175E-01     -1.825540E-01    3268
-CONT-                 -4.953174E-02     -3.998843E-02     -1.292367E-01    3269
   7810012       G      3.294905E-01     -6.748857E-01      9.575733E-02    3270
-CONT-                 -2.633016E-02     -4.987381E-02     -1.138200E-01    3271
   7910007       G     -6.085561E-03      1.636917E-01     -9.016209E-03    3272
-CONT-                 -4.510463E-02     -1.256798E-03     -3.206690E-02    3273
   7910008       G     -3.401323E-03     -7.029293E-01      1.845825E-02    3274
-CONT-                 -5.163377E-02     -4.243670E-04     -3.040101E-02    3275
   7910009       G      2.941245E-01     -9.298836E-02     -4.376265E-01    3276
-CONT-                 -4.269670E-02     -4.731310E-03     -3.188355E-02    3277
   7910010       G      3.128768E-01     -7.599388E-01     -4.404812E-01    3278
-CONT-                  6.655642E-02      1.275636E-01     -6.966443E-02    3279
   7910011       G     -3.041519E-01     -9.586611E-02      4.307089E-01    3280
-CONT-                 -4.348667E-02      2.101564E-03     -3.203767E-02    3281
   7910012       G     -3.199231E-01     -7.598384E-01      4.820911E-01    3282
-CONT-                  6.942964E-02     -1.441156E-01     -7.042056E-02    3283
$TITLE   = MSC.NASTRAN JOB CREATED ON 20-FEB-15 AT 15:37:03                 3284
$SUBTITLE=DEFAULT                                                           3285
$LABEL   =                                                                  3286
$EIGENVECTOR                                                                3287
$REAL OUTPUT                                                                3288
$SUBCASE ID =           1                                                   3289
$EIGENVALUE =  1.0834445E+06  MODE =    50                                  3290
   7710001       G      6.804143E-01     -7.932836E-02      4.316993E-02    3291
-CONT-                  2.276750E-02      4.423614E-03      1.274509E-02    3292
   7710002       G      8.620024E-01     -2.926266E-02      1.038636E+00    3293
-CONT-                  3.212613E-01     -6.639627E-01     -2.888556E-02    3294
   7710003       G      7.958293E-01     -8.413323E-02      3.744787E-02    3295
-CONT-                 -4.970868E-02      1.395875E-02     -1.009848E-02    3296
   7710004       G      8.033810E-01     -1.341390E-01     -1.186306E-01    3297
-CONT-                 -5.215385E-02      1.682410E-02      8.998586E-03    3298
   7710005       G      3.382779E-01     -4.048131E-01      1.316224E-01    3299
-CONT-                  4.042413E-02      4.160208E-02     -4.523802E-02    3300
   7710006       G      3.937415E-01     -5.728418E-01      6.767226E-02    3301
-CONT-                  4.262597E-02      2.032081E-02     -4.527254E-02    3302
   7710007       G     -2.031938E-01     -7.715223E-01     -5.847445E-01    3303
-CONT-                  4.978085E-03      3.274863E-04     -1.772843E-02    3304
   7710008       G     -1.896921E-01     -8.671354E-01     -6.740548E-01    3305
-CONT-                 -1.644294E-02      4.574058E-02     -2.517078E-02    3306
   7710009       G     -3.990799E-02     -8.895857E-01      5.549565E-01    3307
-CONT-                 -1.523771E-02      2.230383E-02      5.145989E-02    3308
   7710010       G     -9.257610E-02     -7.176547E-01      5.097622E-01    3309
-CONT-                 -4.195827E-02     -3.078674E-02      4.352951E-02    3310
   7710011       G      6.830893E-01     -6.981770E-01     -5.242725E-01    3311
-CONT-                  1.637752E-01     -4.743593E-02      7.418427E-02    3312
   7710012       G      5.441988E-01     -4.112304E-01     -1.065883E-02    3313
-CONT-                  1.028183E-01     -5.777905E-02      6.993702E-02    3314
   7810001       G      6.277693E-01      1.011119E-01      6.152764E-02    3315
-CONT-                 -3.029157E-02      6.645905E-03     -1.032410E-02    3316
   7810002       G      8.130626E-01      6.323818E-02      1.057034E+00    3317
-CONT-                 -3.407278E-01     -6.639662E-01      3.319519E-02    3318
   7810003       G      7.268145E-01      1.187951E-01     -2.946115E-02    3319
-CONT-                  4.675685E-02      8.708507E-03      8.664531E-03    3320
   7810004       G      7.331865E-01      1.647480E-01     -1.630521E-01    3321
-CONT-                  5.441010E-02      1.379988E-02     -8.003823E-03    3322
   7810005       G      3.335726E-01      4.233103E-01      1.885359E-01    3323
-CONT-                 -4.095484E-02      2.284022E-02      3.951723E-02    3324
   7810006       G      3.883618E-01      5.634138E-01      2.339318E-01    3325
-CONT-                 -4.226155E-02     -1.074693E-02      3.872688E-02    3326
   7810007       G     -1.361771E-01      7.657685E-01     -3.975438E-01    3327
-CONT-                  5.052481E-03     -2.354406E-02      1.609726E-02    3328
   7810008       G     -1.120847E-01      8.448947E-01     -3.557088E-01    3329
-CONT-                  1.015145E-02      6.022855E-03      2.109654E-02    3330
   7810009       G     -1.198126E-03      8.913701E-01      4.025278E-01    3331
-CONT-                 -9.278963E-03      9.080896E-03     -4.309589E-02    3332
   7810010       G     -4.413633E-02      7.360566E-01      4.455380E-01    3333
-CONT-                  1.083326E-02     -3.154317E-02     -3.673842E-02    3334
   7810011       G      6.277092E-01      7.317448E-01     -4.330891E-01    3335
-CONT-                 -1.093380E-01     -4.609503E-02     -6.473446E-02    3336
   7810012       G      5.340868E-01      4.325709E-01     -3.471446E-02    3337
-CONT-                 -7.075720E-02     -4.693768E-02     -6.116677E-02    3338
   7910007       G      4.138717E-01     -1.262150E-02      4.335825E-02    3339
-CONT-                  9.266093E-04     -3.805626E-03      1.376877E-03    3340
   7910008       G      4.617932E-01      2.506449E-02      3.887372E-01    3341
-CONT-                  2.473789E-03     -5.310659E-03      1.238862E-03    3342
   7910009       G      4.301776E-01      3.883452E-02      1.324626E-01    3343
-CONT-                  1.892226E-02     -2.483380E-02     -1.354456E-02    3344
   7910010       G      4.447836E-01      8.930074E-03      4.257841E-01    3345
-CONT-                 -9.122842E-02     -1.892875E-01     -5.839689E-03    3346
   7910011       G      4.566797E-01     -4.075853E-02      9.693334E-02    3347
-CONT-                 -1.545190E-02     -2.438942E-02      1.653238E-02    3348
   7910012       G      4.719117E-01      4.540311E-02      3.844179E-01    3349
-CONT-                  8.824642E-02     -1.763457E-01      1.136095E-02    3350
