INIT MASTER(S)

SOL 145
CEND
TITLE = MSC.NASTRAN JOB CREATED ON 10-NOV-15 AT 20:23:36
ECHO = NONE
$ Using Nastran default values for RESVEC
SUBCASE 1
   SUBTITLE=Default
   METHOD = 101
   SDAMPING = 2000
   FMETHOD = 1500
   SUPORT1 = 250
   VECTOR(SORT1,REAL)=ALL
$ Direct Text Input for this Subcase
BEGIN BULK
$ Direct Text Input for Bulk Data
PARAM    POST    -1
PARAM   PRTMAXIM YES
$ GROUND POINT FOR WEIGHT GENERATION
PARAM,GRDPNT,28888
$ PARAM,GRDPNT,90012000
$ PRE_PROPVERT WEIGHT TO MASS (1/386)  
PARAM     WTMASS .002591
PARAM     AUNITS .002591
$ PRE_PROPVERT FROM IN/SEC TO KNOTS
PARAM       VREF  20.254
EIGRL    101                     50      0                       MASS
$ EIGR     101    MGIV                            20
$          MASS
TABDMP1	2000
	0.0	.00	1000.	.00  	ENDT
$ ==============================================================
$                       elements and nodes
$ ==============================================================
$ ==============================================================
$                       elements and nodes
$ ==============================================================
INCLUDE 'mAEWing2_nodes_modified_CB_v2_v2.dat'
$ CB
INCLUDE 'mAEWing2_CB_addspar_v2.dat'
INCLUDE 'mAEWing2_CB_leadspar_v2.dat'
INCLUDE 'mAEWing2_CB_midspar_v2.dat'
INCLUDE 'mAEWing2_CB_rearspar_v2.dat'
INCLUDE 'mAEWing2_CB_ribs_v3_v2.dat'
INCLUDE 'mAEWing2_CB_topskin_v2.dat'
INCLUDE 'mAEWing2_CB_botskin_v2_v2.dat'
$ IW
INCLUDE 'mAEWing2_IW_leadspar_v2.dat'
INCLUDE 'mAEWing2_IW_midspar_v2.dat'
INCLUDE 'mAEWing2_IW_rearspar_v2.dat'
INCLUDE 'mAEWing2_IW_ribs_v2_v2.dat'
INCLUDE 'mAEWing2_IW_botskin_v2_v2.dat'
INCLUDE 'mAEWing2_IW_topskin_v2_v2.dat'
$ OW
INCLUDE 'mAEWing2_OW_leadspar_v2.dat'
INCLUDE 'mAEWing2_OW_rearspar_v2.dat'
INCLUDE 'mAEWing2_OW_midribs_v2_v2.dat'
INCLUDE 'mAEWing2_OW_xribs_v2_v2.dat'
INCLUDE 'mAEWing2_OW_topskin_v3_GVT_setup_v2.dat'
INCLUDE 'mAEWing2_OW_botskin_v3_GVT_setup.dat'

INCLUDE 'mAEWing2_winglet_modified_v2_v2.dat'
$
$ =============================================
$          Referenced Coordinate Frames
$ =============================================
INCLUDE 'mAEWing2_CORD2R.dat'
$ =============================================
$          Laminated  Configurations
$ =============================================
INCLUDE 'mAEWing2_material_updated.dat'
$ =============================================
INCLUDE 'spc_suport.dat'
$ 
$ UPDATED PCOMP WITH NSM
INCLUDE 'mAEWing2_PCOMP_wing_updated.dat'
INCLUDE 'mAEWing2_PCOMP_CB_updated.dat'

$ =============================================
$         lumped mass at center body
$ =============================================
$
$ INCLUDE 'mAEWing2_CONM2_servos.dat'
INCLUDE 'mAEWing2_Wing_CONM2_servos.dat'
INCLUDE 'mAEWing2_CONM2_attaches.dat'
INCLUDE 'mAEWing2_CONM2_wing_controlunit+powerreg.dat'
$ =============================================
$        Separate bdf files for Flaps
$ ============================================
INCLUDE 'mAEWing2_OW_TE_flaps_nodes_v2.dat'
INCLUDE 'mAEWing2_OW_TE_flaps_elements.dat'
INCLUDE 'mAEWing2_OW_LE_flaps_nodes_v2.dat'
INCLUDE 'mAEWing2_OW_LE_flaps_elements.dat'
INCLUDE 'mAEWing2_IW_TE_flaps_nodes_v2.dat'
INCLUDE 'mAEWing2_IW_TE_flaps_elements.dat'
$ INCLUDE 'mAEWing2_PCOMP_Flaps.dat'
$
INCLUDE 'mAEWing2_RBE2_updated_v2_v2.dat'
INCLUDE 'mAEWing2_CBUSH_4_flaps_v2.dat'
INCLUDE 'RBE2_control_surfaces_v2.dat'
$ coordinate framework for control surfaces
INCLUDE 'mAEWing2_HingeLine_CORD2R_v2.dat'
$
$  =================== point mass or distributed mass ==========
$ control surface tube
INCLUDE 'mAEWing2_CS_tube.dat'
$ WINGKID
INCLUDE 'mAEWing2_OW_WL_skid.dat'
$ CB point mass
INCLUDE 'mAEWing2_CB_Gear_v0p2.dat'
INCLUDE 'mAEWing2_CB_Propulsion_v0p1.dat'
INCLUDE 'mAEWing2_CB_Airdata.dat'
INCLUDE 'mAEWing2_CB_Flight_v0p2_updated.dat'
INCLUDE 'mAEWing2_CB_Attachv2.dat'
$ 
INCLUDE 'mAEWing2_IMU_accelerometers.dat'
$$$
$	
$ 18888 is CB  CG location
$1......2.......3.......4.......5.......6.......7.......8.......9.......
GRID       18888        76.136  0.0236   52.1269  
RBE2       18888  18888 123456  903403
$ 28888 full model CG location
GRID       28888        81.632  0.0      52.253 
RBE2       28888  28888 123456  730038
$
$ ===================== GVT information =============
$ ACCELEROMETERS
INCLUDE 'mAEWing2_Full_GVT_accelero.dat'
$============================================================================
$                            FLUTTER DATA
$===========================================================================
$       ACSID   velo    REFC    rhoref  SYMXZ   SYMXY
AERO    0               15.972  1.1468-7  
$       ACSID   RCSID   REFC    REFB    REFS    SYMXZ   SYMXY
$ AEROS   0       0       15.744  120     1681.78 1
$
$INCLUDE 'mAEWing2_CAERO1.dat'
$INCLUDE 'mAEWing2_AESURF.dat'
$INCLUDE 'mAEWing2_SPLINE1.dat'
$INCLUDE 'mAEWing2_SPLINE1_SET1.dat'
$
INCLUDE 'mAEWing2_CAERO1.dat'
INCLUDE 'mAEWing2_AESURF.dat'
INCLUDE 'mAEWing2_SPLINE4.dat'
INCLUDE 'mAEWing2_SPLINE4_SET1_v2.dat'
INCLUDE 'mAEWing2_SPLINE4_AELIST.dat'
$=====================================================================
$                    MKAERO1 and FLUTTER Cards
$=====================================================================
MKAERO1 0.000                                                           +MK1
+MK1    0.001   0.030   0.070   0.110   0.170   0.230   0.310   0.400   
MKAERO1 0.0                                                             +MK2
+MK2    0.510   0.650   0.800   1.000   1.200   1.500   1.800   2.200   
MKAERO1 0.0                                                             +MK3
+MK3    2.700   3.300   4.000   4.800   5.800   7.000   8.400   10.00
$1------$2------$3------$4------$5------$6------$7------$8------$9------
FLUTTER 1500    PK      150     151     152     L
PARAM,LMODES,50
$
FLFACT  150     1.00 
$1------$2------$3------$4------$5------$6------$7------$8------$9------
FLFACT  151     0.0
$FLFACT       151 0.00500 0.01000 0.02000 0.03000 0.04000 0.05000 0.06000 
$         0.07000 0.08000 0.09000 0.10000 0.11000 0.12000 0.13000 0.14000 
$         0.15000 0.16000 0.17000 0.18000 0.19000 0.20000
$1------$2------$3------$4------$5------$6------$7------$8------$9------
FLFACT  152	135.04  202.56  270.08  337.60  405.12  472.64  540.16
        607.68  675.20  742.72  810.24  877.76  945.27  1012.79 1080.31
        1147.83 1215.35 1282.87 1350.39 1417.91 1485.43 1552.95 1620.69
        1687.99 1755.51 1823.03 1924.1  2025.37 2126.64 2227.91 2329.18
	2430.44 2531.71 2632.98 2734.25 
$ 2835.52 2936.79 3038.06
ENDDATA d2dbc08c